/*---------------------------------------------------------------------------*\
  =========                 |
  \\      /  F ield         | OpenFOAM: The Open Source CFD Toolbox
   \\    /   O peration     | Website:  https://openfoam.org
    \\  /    A nd           | Version:  7
     \\/     M anipulation  |
\*---------------------------------------------------------------------------*/
Build  : 7
Exec   : snappyHexMesh -parallel -overwrite
Date   : Oct 14 2020
Time   : 12:00:04
Host   : "cpu-p-283"
PID    : 218782
I/O    : uncollated
Case   : /rds/user/hpcbras1/hpc-work/csd3/cclake-ib-gcc9-ompi3-ucx/openfoam/Openfoam_Mbike_2
nProcs : 64
Slaves : 
63
(
"cpu-p-283.218783"
"cpu-p-283.218784"
"cpu-p-283.218785"
"cpu-p-283.218786"
"cpu-p-283.218787"
"cpu-p-283.218788"
"cpu-p-283.218789"
"cpu-p-283.218790"
"cpu-p-283.218791"
"cpu-p-283.218792"
"cpu-p-283.218793"
"cpu-p-283.218794"
"cpu-p-283.218795"
"cpu-p-283.218796"
"cpu-p-283.218797"
"cpu-p-283.218798"
"cpu-p-283.218799"
"cpu-p-283.218800"
"cpu-p-283.218801"
"cpu-p-283.218802"
"cpu-p-283.218803"
"cpu-p-283.218804"
"cpu-p-283.218805"
"cpu-p-283.218806"
"cpu-p-283.218807"
"cpu-p-283.218808"
"cpu-p-283.218809"
"cpu-p-283.218810"
"cpu-p-283.218811"
"cpu-p-283.218812"
"cpu-p-283.218813"
"cpu-p-284.216758"
"cpu-p-284.216759"
"cpu-p-284.216760"
"cpu-p-284.216761"
"cpu-p-284.216762"
"cpu-p-284.216763"
"cpu-p-284.216764"
"cpu-p-284.216765"
"cpu-p-284.216766"
"cpu-p-284.216767"
"cpu-p-284.216768"
"cpu-p-284.216769"
"cpu-p-284.216770"
"cpu-p-284.216771"
"cpu-p-284.216772"
"cpu-p-284.216773"
"cpu-p-284.216774"
"cpu-p-284.216775"
"cpu-p-284.216776"
"cpu-p-284.216777"
"cpu-p-284.216778"
"cpu-p-284.216779"
"cpu-p-284.216780"
"cpu-p-284.216781"
"cpu-p-284.216782"
"cpu-p-284.216783"
"cpu-p-284.216784"
"cpu-p-284.216785"
"cpu-p-284.216786"
"cpu-p-284.216787"
"cpu-p-284.216788"
"cpu-p-284.216789"
)

Pstream initialized with:
    floatTransfer      : 0
    nProcsSimpleSum    : 0
    commsType          : nonBlocking
    polling iterations : 0
sigFpe : Enabling floating point exception trapping (FOAM_SIGFPE).
fileModificationChecking : Monitoring run-time modified files using timeStampMaster (fileModificationSkew 10)
allowSystemOperations : Allowing user-supplied system call operations

// * * * * * * * * * * * * * * * * * * * * * * * * * * * * * * * * * * * * * //
Create time

Create mesh for time = 0

Read mesh in = 1.59 s

Overall mesh bounding box  : (-5 -4 0) (15 4 8)
Relative tolerance         : 1e-06
Absolute matching distance : 2.29783e-05

Reading refinement surfaces.
Read refinement surfaces in = 1.39 s

Reading refinement shells.
Refinement level 4 for all cells inside refinementBox
Read refinement shells in = 0 s

Setting refinement level of surface to be consistent with shells.
Checked shell refinement in = 1.17 s

Reading features.
Read edgeMesh motorBike.eMesh
    points      : 20665
    edges       : 20867
    boundingBox : (-0.241214 -0.337971 -4.232e-05) (1.75115 0.329368 1.21979)

Refinement level according to distance to "motorBike.eMesh" (20665 points, 20867 edges).
    level 6 for all cells within 0 metre.
Read features in = 0.04 s


Determining initial surface intersections
-----------------------------------------

Edge intersection testing:
    Number of edges             : 32256
    Number of edges to retest   : 32256
    Number of intersected edges : 26
Calculated surface intersections in = 0.02 s

Initial mesh : cells:10240  faces:32256  points:11849
Cells per refinement level:
    0	10240

Adding patches for surface regions
----------------------------------

Patch Type                Region                        
----- ----                ------                        
motorBike:

5     wall                motorBike_frt-fairing:001%1   
6     wall                motorBike_windshield:002%2    
7     wall                motorBike_rr-wh-rim:005%5     
8     wall                motorBike_rr-wh-rim:010%10    
9     wall                motorBike_fr-wh-rim:011%11    
10    wall                motorBike_fr-wh-brake-disk:012%12
11    wall                motorBike_frame:016-shadow%13 
12    wall                motorBike_rear-susp:014%14    
13    wall                motorBike_rear-susp:014-shadow%15
14    wall                motorBike_frame:016%16        
15    wall                motorBike_rr-wh-rim:005-shadow%17
16    wall                motorBike_rr-wh-chain-hub:022%22
17    wall                motorBike_rearseat%24         
18    wall                motorBike_frt-fairing%25      
19    wall                motorBike_windshield%26       
20    wall                motorBike_headlights%27       
21    wall                motorBike_driversseat%28      
22    wall                motorBike_rear-body%29        
23    wall                motorBike_fuel-tank%30        
24    wall                motorBike_exhaust%31          
25    wall                motorBike_rr-wh-rim%32        
26    wall                motorBike_fr-mud-guard%33     
27    wall                motorBike_fr-wh-rim%34        
28    wall                motorBike_fr-wh-brake-disk%35 
29    wall                motorBike_fr-brake-caliper%36 
30    wall                motorBike_fr-wh-tyre%37       
31    wall                motorBike_hbars%38            
32    wall                motorBike_fr-forks%39         
33    wall                motorBike_chain%40            
34    wall                motorBike_rr-wh-tyre%41       
35    wall                motorBike_square-dial%42      
36    wall                motorBike_round-dial%43       
37    wall                motorBike_dial-holder%44      
38    wall                motorBike_rear-susp%45        
39    wall                motorBike_rear-brake-lights%46
40    wall                motorBike_rear-light-bracket%47
41    wall                motorBike_frame%48            
42    wall                motorBike_rear-mud-guard%49   
43    wall                motorBike_rear-susp-spring-damp%50
44    wall                motorBike_fairing-inner-plate%51
45    wall                motorBike_clutch-housing%52   
46    wall                motorBike_radiator%53         
47    wall                motorBike_water-pipe%54       
48    wall                motorBike_water-pump%55       
49    wall                motorBike_engine%56           
50    wall                motorBike_rear-shock-link%57  
51    wall                motorBike_rear-brake-fluid-pot-bracket%58
52    wall                motorBike_rear-brake-fluid-pot%59
53    wall                motorBike_footpeg%60          
54    wall                motorBike_rr-wh-chain-hub%61  
55    wall                motorBike_rear-brake-caliper%62
56    wall                motorBike_rider-helmet%65     
57    wall                motorBike_rider-visor%66      
58    wall                motorBike_rider-boots%67      
59    wall                motorBike_rider-gloves%68     
60    wall                motorBike_rider-body%69       
61    wall                motorBike_frame:0%70          
62    wall                motorBike_frt-fairing:001-shadow%74
63    wall                motorBike_windshield-shadow%75
64    wall                motorBike_fr-mud-guard-shadow%81
65    wall                motorBike_fr-wh-brake-disk-shadow%83
66    wall                motorBike_rear-mud-guard-shadow%84
67    wall                motorBike_rear-susp-spring-damp-shadow%85
68    wall                motorBike_radiator-shadow%86  
69    wall                motorBike_rear-shock-link-shadow%87
[3]  Foam::decompositionMethod::New 
[3] {
[3]     numberOfSubdomains 64;
[3]     method          scotch;
[3]     simpleCoeffs
[3]     {
[3]         n               ( 4 1 1 );
[3]         delta           0.001;
[3]     }
[3]     hierarchicalCoeffs
[3]     {
[3]         n               ( 3 2 1 );
[3]         delta           0.001;
[3]         order           xyz;
[3]     }
[3]     manualCoeffs
[3]     {
[3]         dataFile        "cellDecomposition";
[3]     }
[3] }
[3] 
[3] Selecting decompositionMethod scotch
[5]  Foam::decompositionMethod::New 
[5] {
[5]     numberOfSubdomains 64;
[5]     method          scotch;
[5]     simpleCoeffs
[5]     {
[5]         n               ( 4 1 1 );
[5]         delta           0.001;
[5]     }
[5]     hierarchicalCoeffs
[5]     {
[5]         n               ( 3 2 1 );
[5]         delta           0.001;
[5]         order           xyz;
[5]     }
[5]     manualCoeffs
[5]     {
[5]         dataFile        "cellDecomposition";
[5]     }
[5] }
[5] 
[5] Selecting decompositionMethod scotch
[10]  Foam::decompositionMethod::New 
[10] {
[10]     numberOfSubdomains 64;
[10]     method          scotch;
[10]     simpleCoeffs
[10]     {
[10]         n               ( 4 1 1 );
[10]         delta           0.001;
[10]     }
[10]     hierarchicalCoeffs
[10]     {
[10]         n               ( 3 2 1 );
[10]         delta           0.001;
[10]         order           xyz;
[10]     }
[10]     manualCoeffs
[10]     {
[10]         dataFile        "cellDecomposition";
[10]     }
[10] }
[10] 
[10] Selecting decompositionMethod scotch
[11]  Foam::decompositionMethod::New 
[11] {
[11]     numberOfSubdomains 64;
[11]     method          scotch;
[11]     simpleCoeffs
[11]     {
[11]         n               ( 4 1 1 );
[11]         delta           0.001;
[11]     }
[11]     hierarchicalCoeffs
[11]     {
[11]         n               ( 3 2 1 );
[11]         delta           0.001;
[11]         order           xyz;
[11]     }
[11]     manualCoeffs
[11]     {
[11]         dataFile        "cellDecomposition";
[11]     }
[11] }
[11] 
[11] Selecting decompositionMethod scotch
[12]  Foam::decompositionMethod::New 
[12] {
[12]     numberOfSubdomains 64;
[12]     method          scotch;
[12]     simpleCoeffs
[12]     {
[12]         n               ( 4 1 1 );
[12]         delta           0.001;
[12]     }
[12]     hierarchicalCoeffs
[12]     {
[12]         n               ( 3 2 1 );
[12]         delta           0.001;
[12]         order           xyz;
[12]     }
[12]     manualCoeffs
[12]     {
[12]         dataFile        "cellDecomposition";
[12]     }
[12] }
[12] 
[12] Selecting decompositionMethod scotch
[13]  Foam::decompositionMethod::New 
[13] {
[13]     numberOfSubdomains 64;
[13]     method          scotch;
[13]     simpleCoeffs
[13]     {
[13]         n               ( 4 1 1 );
[13]         delta           0.001;
[13]     }
[13]     hierarchicalCoeffs
[13]     {
[13]         n               ( 3 2 1 );
[13]         delta           0.001;
[13]         order           xyz;
[13]     }
[13]     manualCoeffs
[13]     {
[13]         dataFile        "cellDecomposition";
[13]     }
[13] }
[13] 
[13] Selecting decompositionMethod scotch
[14]  Foam::decompositionMethod::New 
[14] {
[14]     numberOfSubdomains 64;
[14]     method          scotch;
[14]     simpleCoeffs
[14]     {
[14]         n               ( 4 1 1 );
[14]         delta           0.001;
[14]     }
[14]     hierarchicalCoeffs
[14]     {
[14]         n               ( 3 2 1 );
[14]         delta           0.001;
[14]         order           xyz;
[14]     }
[14]     manualCoeffs
[14]     {
[14]         dataFile        "cellDecomposition";
[14]     }
[14] }
[14] 
[14] Selecting decompositionMethod scotch
[15]  Foam::decompositionMethod::New 
[15] {
[15]     numberOfSubdomains 64;
[15]     method          scotch;
[15]     simpleCoeffs
[15]     {
[15]         n               ( 4 1 1 );
[15]         delta           0.001;
[15]     }
[15]     hierarchicalCoeffs
[15]     {
[15]         n               ( 3 2 1 );
[15]         delta           0.001;
[15]         order           xyz;
[15]     }
[15]     manualCoeffs
[15]     {
[15]         dataFile        "cellDecomposition";
[15]     }
[15] }
[15] 
[15] Selecting decompositionMethod scotch
[16]  Foam::decompositionMethod::New 
[16] {
[16]     numberOfSubdomains 64;
[16]     method          scotch;
[16]     simpleCoeffs
[16]     {
[16]         n               ( 4 1 1 );
[16]         delta           0.001;
[16]     }
[16]     hierarchicalCoeffs
[16]     {
[16]         n               ( 3 2 1 );
[16]         delta           0.001;
[16]         order           xyz;
[16]     }
[16]     manualCoeffs
[16]     {
[16]         dataFile        "cellDecomposition";
[16]     }
[16] }
[16] 
[16] Selecting decompositionMethod scotch
[17]  Foam::decompositionMethod::New 
[17] {
[17]     numberOfSubdomains 64;
[17]     method          scotch;
[17]     simpleCoeffs
[17]     {
[17]         n               ( 4 1 1 );
[17]         delta           0.001;
[17]     }
[17]     hierarchicalCoeffs
[17]     {
[17]         n               ( 3 2 1 );
[17]         delta           0.001;
[17]         order           xyz;
[17]     }
[17]     manualCoeffs
[17]     {
[17]         dataFile        "cellDecomposition";
[17]     }
[17] }
[17] 
[17] Selecting decompositionMethod scotch
[18]  Foam::decompositionMethod::New 
[18] {
[18]     numberOfSubdomains 64;
[18]     method          scotch;
[18]     simpleCoeffs
[18]     {
[18]         n               ( 4 1 1 );
[18]         delta           0.001;
[18]     }
[18]     hierarchicalCoeffs
[18]     {
[18]         n               ( 3 2 1 );
[18]         delta           0.001;
[18]         order           xyz;
[18]     }
[18]     manualCoeffs
[18]     {
[18]         dataFile        "cellDecomposition";
[18]     }
[18] }
[18] 
[18] Selecting decompositionMethod scotch
[19]  Foam::decompositionMethod::New 
[19] {
[19]     numberOfSubdomains 64;
[19]     method          scotch;
[19]     simpleCoeffs
[19]     {
[19]         n               ( 4 1 1 );
[19]         delta           0.001;
[19]     }
[19]     hierarchicalCoeffs
[19]     {
[19]         n               ( 3 2 1 );
[19]         delta           0.001;
[19]         order           xyz;
[19]     }
[19]     manualCoeffs
[19]     {
[19]         dataFile        "cellDecomposition";
[19]     }
[19] }
[19] 
[19] Selecting decompositionMethod scotch
[20]  Foam::decompositionMethod::New 
[20] {
[20]     numberOfSubdomains 64;
[20]     method          scotch;
[20]     simpleCoeffs
[20]     {
[20]         n               ( 4 1 1 );
[20]         delta           0.001;
[20]     }
[20]     hierarchicalCoeffs
[20]     {
[20]         n               ( 3 2 1 );
[20]         delta           0.001;
[20]         order           xyz;
[20]     }
[20]     manualCoeffs
[20]     {
[20]         dataFile        "cellDecomposition";
[20]     }
[20] }
[20] 
[20] Selecting decompositionMethod scotch
[21]  Foam::decompositionMethod::New 
[21] {
[21]     numberOfSubdomains 64;
[21]     method          scotch;
[21]     simpleCoeffs
[21]     {
[21]         n               ( 4 1 1 );
[21]         delta           0.001;
[21]     }
[21]     hierarchicalCoeffs
[21]     {
[21]         n               ( 3 2 1 );
[21]         delta           0.001;
[21]         order           xyz;
[21]     }
[21]     manualCoeffs
[21]     {
[21]         dataFile        "cellDecomposition";
[21]     }
[21] }
[21] 
[21] Selecting decompositionMethod scotch
[22]  Foam::decompositionMethod::New 
[22] {
[22]     numberOfSubdomains 64;
[22]     method          scotch;
[22]     simpleCoeffs
[22]     {
[22]         n               ( 4 1 1 );
[22]         delta           0.001;
[22]     }
[22]     hierarchicalCoeffs
[22]     {
[22]         n               ( 3 2 1 );
[22]         delta           0.001;
[22]         order           xyz;
[22]     }
[22]     manualCoeffs
[22]     {
[22]         dataFile        "cellDecomposition";
[22]     }
[22] }
[22] 
[22] Selecting decompositionMethod scotch
[23]  Foam::decompositionMethod::New 
[23] {
[23]     numberOfSubdomains 64;
[23]     method          scotch;
[23]     simpleCoeffs
[23]     {
[23]         n               ( 4 1 1 );
[23]         delta           0.001;
[23]     }
[23]     hierarchicalCoeffs
[23]     {
[23]         n               ( 3 2 1 );
[23]         delta           0.001;
[23]         order           xyz;
[23]     }
[23]     manualCoeffs
[23]     {
[23]         dataFile        "cellDecomposition";
[23]     }
[23] }
[23] 
[23] Selecting decompositionMethod scotch
[24]  Foam::decompositionMethod::New 
[24] {
[24]     numberOfSubdomains 64;
[24]     method          scotch;
[24]     simpleCoeffs
[24]     {
[24]         n               ( 4 1 1 );
[24]         delta           0.001;
[24]     }
[24]     hierarchicalCoeffs
[24]     {
[24]         n               ( 3 2 1 );
[24]         delta           0.001;
[24]         order           xyz;
[24]     }
[24]     manualCoeffs
[24]     {
[24]         dataFile        "cellDecomposition";
[24]     }
[24] }
[24] 
[24] Selecting decompositionMethod scotch
[25]  Foam::decompositionMethod::New 
[25] {
[25]     numberOfSubdomains 64;
[25]     method          scotch;
[25]     simpleCoeffs
[25]     {
[25]         n               ( 4 1 1 );
[25]         delta           0.001;
[25]     }
[25]     hierarchicalCoeffs
[25]     {
[25]         n               ( 3 2 1 );
[25]         delta           0.001;
[25]         order           xyz;
[25]     }
[25]     manualCoeffs
[25]     {
[25]         dataFile        "cellDecomposition";
[25]     }
[25] }
[25] 
[25] Selecting decompositionMethod scotch
[26]  Foam::decompositionMethod::New 
[26] {
[26]     numberOfSubdomains 64;
[26]     method          scotch;
[26]     simpleCoeffs
[26]     {
[26]         n               ( 4 1 1 );
[26]         delta           0.001;
[26]     }
[26]     hierarchicalCoeffs
[26]     {
[26]         n               ( 3 2 1 );
[26]         delta           0.001;
[26]         order           xyz;
[26]     }
[26]     manualCoeffs
[26]     {
[26]         dataFile        "cellDecomposition";
[26]     }
[26] }
[26] 
[26] Selecting decompositionMethod scotch
[27]  Foam::decompositionMethod::New 
[27] {
[27]     numberOfSubdomains 64;
[27]     method          scotch;
[27]     simpleCoeffs
[27]     {
[27]         n               ( 4 1 1 );
[27]         delta           0.001;
[27]     }
[27]     hierarchicalCoeffs
[27]     {
[27]         n               ( 3 2 1 );
[27]         delta           0.001;
[27]         order           xyz;
[27]     }
[27]     manualCoeffs
[27]     {
[27]         dataFile        "cellDecomposition";
[27]     }
[27] }
[27] 
[27] Selecting decompositionMethod scotch
[28]  Foam::decompositionMethod::New 
[28] {
[28]     numberOfSubdomains 64;
[28]     method          scotch;
[28]     simpleCoeffs
[28]     {
[28]         n               ( 4 1 1 );
[28]         delta           0.001;
[28]     }
[28]     hierarchicalCoeffs
[28]     {
[28]         n               ( 3 2 1 );
[28]         delta           0.001;
[28]         order           xyz;
[28]     }
[28]     manualCoeffs
[28]     {
[28]         dataFile        "cellDecomposition";
[28]     }
[28] }
[28] 
[28] Selecting decompositionMethod scotch
[29]  Foam::decompositionMethod::New 
[29] {
[29]     numberOfSubdomains 64;
[29]     method          scotch;
[29]     simpleCoeffs
[29]     {
[29]         n               ( 4 1 1 );
[29]         delta           0.001;
[29]     }
[29]     hierarchicalCoeffs
[29]     {
[29]         n               ( 3 2 1 );
[29]         delta           0.001;
[29]         order           xyz;
[29]     }
[29]     manualCoeffs
[29]     {
[29]         dataFile        "cellDecomposition";
[29]     }
[29] }
[29] 
[29] Selecting decompositionMethod scotch
[30]  Foam::decompositionMethod::New 
[30] {
[30]     numberOfSubdomains 64;
[30]     method          scotch;
[30]     simpleCoeffs
[30]     {
[30]         n               ( 4 1 1 );
[30]         delta           0.001;
[30]     }
[30]     hierarchicalCoeffs
[30]     {
[30]         n               ( 3 2 1 );
[30]         delta           0.001;
[30]         order           xyz;
[30]     }
[30]     manualCoeffs
[30]     {
[30]         dataFile        "cellDecomposition";
[30]     }
[30] }
[30] 
[30] Selecting decompositionMethod scotch
[31]  Foam::decompositionMethod::New 
[31] {
[31]     numberOfSubdomains 64;
[31]     method          scotch;
[31]     simpleCoeffs
[31]     {
[31]         n               ( 4 1 1 );
[31]         delta           0.001;
[31]     }
[31]     hierarchicalCoeffs
[31]     {
[31]         n               ( 3 2 1 );
[31]         delta           0.001;
[31]         order           xyz;
[31]     }
[31]     manualCoeffs
[31]     {
[31]         dataFile        "cellDecomposition";
[31]     }
[31] }
[31] 
[31] Selecting decompositionMethod scotch
70    wall                motorBike_rear-brake-fluid-pot-bracket-shadow%88
71    wall                motorBike_rr-wh-chain-hub-shadow%89

Added patches in = 0.06 s

[0]  Foam::decompositionMethod::New 
[0] {
[0]     numberOfSubdomains 64;
[0]     method          scotch;
[0]     simpleCoeffs
[0]     {
[0]         n               ( 4 1 1 );
[0]         delta           0.001;
[0]     }
[0]     hierarchicalCoeffs
[0]     {
[0]         n               ( 3 2 1 );
[0]         delta           0.001;
[0]         order           xyz;
[0]     }
[0]     manualCoeffs
[0]     {
[0]         dataFile        "cellDecomposition";
[0]     }
[0] }
[0] 
[0] Selecting decompositionMethod scotch
Layer thickness specified as final layer and expansion ratio.

Refinement phase
----------------

[1]  Foam::decompositionMethod::New 
[1] {
[1]     numberOfSubdomains 64;
[1]     method          scotch;
[1]     simpleCoeffs
[1]     {
[1]         n               ( 4 1 1 );
[1]         delta           0.001;
[1]     }
[1]     hierarchicalCoeffs
[1]     {
[1]         n               ( 3 2 1 );
[1]         delta           0.001;
[1]         order           xyz;
[1]     }
[1]     manualCoeffs
[1]     {
[1]         dataFile        "cellDecomposition";
[1]     }
[1] }
[1] 
[1] Selecting decompositionMethod scotch
[2]  Foam::decompositionMethod::New 
[2] {
[2]     numberOfSubdomains 64;
[2]     method          scotch;
[2]     simpleCoeffs
[2]     {
[2]         n               ( 4 1 1 );
[2]         delta           0.001;
[2]     }
[2]     hierarchicalCoeffs
[2]     {
[2]         n               ( 3 2 1 );
[2]         delta           0.001;
[2]         order           xyz;
[2]     }
[2]     manualCoeffs
[2]     {
[2]         dataFile        "cellDecomposition";
[2]     }
[2] }
[2] 
[2] Selecting decompositionMethod scotch
[4]  Foam::decompositionMethod::New 
[4] {
[4]     numberOfSubdomains 64;
[4]     method          scotch;
[4]     simpleCoeffs
[4]     {
[4]         n               ( 4 1 1 );
[4]         delta           0.001;
[4]     }
[4]     hierarchicalCoeffs
[4]     {
[4]         n               ( 3 2 1 );
[4]         delta           0.001;
[4]         order           xyz;
[4]     }
[4]     manualCoeffs
[4]     {
[4]         dataFile        "cellDecomposition";
[4]     }
[4] }
[4] 
[4] Selecting decompositionMethod scotch
[6]  Foam::decompositionMethod::New 
[6] {
[6]     numberOfSubdomains 64;
[6]     method          scotch;
[6]     simpleCoeffs
[6]     {
[6]         n               ( 4 1 1 );
[6]         delta           0.001;
[6]     }
[6]     hierarchicalCoeffs
[6]     {
[6]         n               ( 3 2 1 );
[6]         delta           0.001;
[6]         order           xyz;
[6]     }
[6]     manualCoeffs
[6]     {
[6]         dataFile        "cellDecomposition";
[6]     }
[6] }
[6] 
[6] Selecting decompositionMethod scotch
[7]  Foam::decompositionMethod::New 
[7] {
[7]     numberOfSubdomains 64;
[7]     method          scotch;
[7]     simpleCoeffs
[7]     {
[7]         n               ( 4 1 1 );
[7]         delta           0.001;
[7]     }
[7]     hierarchicalCoeffs
[7]     {
[7]         n               ( 3 2 1 );
[7]         delta           0.001;
[7]         order           xyz;
[7]     }
[7]     manualCoeffs
[7]     {
[7]         dataFile        "cellDecomposition";
[7]     }
[7] }
[7] 
[7] Selecting decompositionMethod scotch
[8]  Foam::decompositionMethod::New 
[8] {
[8]     numberOfSubdomains 64;
[8]     method          scotch;
[8]     simpleCoeffs
[8]     {
[8]         n               ( 4 1 1 );
[8]         delta           0.001;
[8]     }
[8]     hierarchicalCoeffs
[8]     {
[8]         n               ( 3 2 1 );
[8]         delta           0.001;
[8]         order           xyz;
[8]     }
[8]     manualCoeffs
[8]     {
[8]         dataFile        "cellDecomposition";
[8]     }
[8] }
[8] 
[8] Selecting decompositionMethod scotch
[9]  Foam::decompositionMethod::New 
[9] {
[9]     numberOfSubdomains 64;
[9]     method          scotch;
[9]     simpleCoeffs
[9]     {
[9]         n               ( 4 1 1 );
[9]         delta           0.001;
[9]     }
[9]     hierarchicalCoeffs
[9]     {
[9]         n               ( 3 2 1 );
[9]         delta           0.001;
[9]         order           xyz;
[9]     }
[9]     manualCoeffs
[9]     {
[9]         dataFile        "cellDecomposition";
[9]     }
[9] }
[9] 
[9] Selecting decompositionMethod scotch
[32]  Foam::decompositionMethod::New 
[32] {
[32]     numberOfSubdomains 64;
[32]     method          scotch;
[32]     simpleCoeffs
[32]     {
[32]         n               ( 4 1 1 );
[32]         delta           0.001;
[32]     }
[32]     hierarchicalCoeffs
[32]     {
[32]         n               ( 3 2 1 );
[32]         delta           0.001;
[32]         order           xyz;
[32]     }
[32]     manualCoeffs
[32]     {
[32]         dataFile        "cellDecomposition";
[32]     }
[32] }
[32] 
[32] Selecting decompositionMethod scotch
[33]  Foam::decompositionMethod::New 
[33] {
[33]     numberOfSubdomains 64;
[33]     method          scotch;
[33]     simpleCoeffs
[33]     {
[33]         n               ( 4 1 1 );
[33]         delta           0.001;
[33]     }
[33]     hierarchicalCoeffs
[33]     {
[33]         n               ( 3 2 1 );
[33]         delta           0.001;
[33]         order           xyz;
[33]     }
[33]     manualCoeffs
[33]     {
[33]         dataFile        "cellDecomposition";
[33]     }
[33] }
[33] 
[33] Selecting decompositionMethod scotch
[34]  Foam::decompositionMethod::New 
[34] {
[34]     numberOfSubdomains 64;
[34]     method          scotch;
[34]     simpleCoeffs
[34]     {
[34]         n               ( 4 1 1 );
[34]         delta           0.001;
[34]     }
[34]     hierarchicalCoeffs
[34]     {
[34]         n               ( 3 2 1 );
[34]         delta           0.001;
[34]         order           xyz;
[34]     }
[34]     manualCoeffs
[34]     {
[34]         dataFile        "cellDecomposition";
[34]     }
[34] }
[34] 
[34] Selecting decompositionMethod scotch
[35]  Foam::decompositionMethod::New 
[35] {
[35]     numberOfSubdomains 64;
[35]     method          scotch;
[35]     simpleCoeffs
[35]     {
[35]         n               ( 4 1 1 );
[35]         delta           0.001;
[35]     }
[35]     hierarchicalCoeffs
[35]     {
[35]         n               ( 3 2 1 );
[35]         delta           0.001;
[35]         order           xyz;
[35]     }
[35]     manualCoeffs
[35]     {
[35]         dataFile        "cellDecomposition";
[35]     }
[35] }
[35] 
[35] Selecting decompositionMethod scotch
[36]  Foam::decompositionMethod::New 
[36] {
[36]     numberOfSubdomains 64;
[36]     method          scotch;
[36]     simpleCoeffs
[36]     {
[36]         n               ( 4 1 1 );
[36]         delta           0.001;
[36]     }
[36]     hierarchicalCoeffs
[36]     {
[36]         n               ( 3 2 1 );
[36]         delta           0.001;
[36]         order           xyz;
[36]     }
[36]     manualCoeffs
[36]     {
[36]         dataFile        "cellDecomposition";
[36]     }
[36] }
[36] 
[36] Selecting decompositionMethod scotch
[37]  Foam::decompositionMethod::New 
[37] {
[37]     numberOfSubdomains 64;
[37]     method          scotch;
[37]     simpleCoeffs
[37]     {
[37]         n               ( 4 1 1 );
[37]         delta           0.001;
[37]     }
[37]     hierarchicalCoeffs
[37]     {
[37]         n               ( 3 2 1 );
[37]         delta           0.001;
[37]         order           xyz;
[37]     }
[37]     manualCoeffs
[37]     {
[37]         dataFile        "cellDecomposition";
[37]     }
[37] }
[37] 
[37] Selecting decompositionMethod scotch
[38]  Foam::decompositionMethod::New 
[38] {
[38]     numberOfSubdomains 64;
[38]     method          scotch;
[38]     simpleCoeffs
[38]     {
[38]         n               ( 4 1 1 );
[38]         delta           0.001;
[38]     }
[38]     hierarchicalCoeffs
[38]     {
[38]         n               ( 3 2 1 );
[38]         delta           0.001;
[38]         order           xyz;
[38]     }
[38]     manualCoeffs
[38]     {
[38]         dataFile        "cellDecomposition";
[38]     }
[38] }
[38] 
[38] Selecting decompositionMethod scotch
[39]  Foam::decompositionMethod::New 
[39] {
[39]     numberOfSubdomains 64;
[39]     method          scotch;
[39]     simpleCoeffs
[39]     {
[39]         n               ( 4 1 1 );
[39]         delta           0.001;
[39]     }
[39]     hierarchicalCoeffs
[39]     {
[39]         n               ( 3 2 1 );
[39]         delta           0.001;
[39]         order           xyz;
[39]     }
[39]     manualCoeffs
[39]     {
[39]         dataFile        "cellDecomposition";
[39]     }
[39] }
[39] 
[39] Selecting decompositionMethod scotch
[40]  Foam::decompositionMethod::New 
[40] {
[40]     numberOfSubdomains 64;
[40]     method          scotch;
[40]     simpleCoeffs
[40]     {
[40]         n               ( 4 1 1 );
[40]         delta           0.001;
[40]     }
[40]     hierarchicalCoeffs
[40]     {
[40]         n               ( 3 2 1 );
[40]         delta           0.001;
[40]         order           xyz;
[40]     }
[40]     manualCoeffs
[40]     {
[40]         dataFile        "cellDecomposition";
[40]     }
[40] }
[40] 
[40] Selecting decompositionMethod scotch
[41]  Foam::decompositionMethod::New 
[41] {
[41]     numberOfSubdomains 64;
[41]     method          scotch;
[41]     simpleCoeffs
[41]     {
[41]         n               ( 4 1 1 );
[41]         delta           0.001;
[41]     }
[41]     hierarchicalCoeffs
[41]     {
[41]         n               ( 3 2 1 );
[41]         delta           0.001;
[41]         order           xyz;
[41]     }
[41]     manualCoeffs
[41]     {
[41]         dataFile        "cellDecomposition";
[41]     }
[41] }
[41] 
[41] Selecting decompositionMethod scotch
[42]  Foam::decompositionMethod::New 
[42] {
[42]     numberOfSubdomains 64;
[42]     method          scotch;
[42]     simpleCoeffs
[42]     {
[42]         n               ( 4 1 1 );
[42]         delta           0.001;
[42]     }
[42]     hierarchicalCoeffs
[42]     {
[42]         n               ( 3 2 1 );
[42]         delta           0.001;
[42]         order           xyz;
[42]     }
[42]     manualCoeffs
[42]     {
[42]         dataFile        "cellDecomposition";
[42]     }
[42] }
[42] 
[42] Selecting decompositionMethod scotch
[43]  Foam::decompositionMethod::New 
[43] {
[43]     numberOfSubdomains 64;
[43]     method          scotch;
[43]     simpleCoeffs
[43]     {
[43]         n               ( 4 1 1 );
[43]         delta           0.001;
[43]     }
[43]     hierarchicalCoeffs
[43]     {
[43]         n               ( 3 2 1 );
[43]         delta           0.001;
[43]         order           xyz;
[43]     }
[43]     manualCoeffs
[43]     {
[43]         dataFile        "cellDecomposition";
[43]     }
[43] }
[43] 
[43] Selecting decompositionMethod scotch
[44]  Foam::decompositionMethod::New 
[44] {
[44]     numberOfSubdomains 64;
[44]     method          scotch;
[44]     simpleCoeffs
[44]     {
[44]         n               ( 4 1 1 );
[44]         delta           0.001;
[44]     }
[44]     hierarchicalCoeffs
[44]     {
[44]         n               ( 3 2 1 );
[44]         delta           0.001;
[44]         order           xyz;
[44]     }
[44]     manualCoeffs
[44]     {
[44]         dataFile        "cellDecomposition";
[44]     }
[44] }
[44] 
[44] Selecting decompositionMethod scotch
[45]  Foam::decompositionMethod::New 
[45] {
[45]     numberOfSubdomains 64;
[45]     method          scotch;
[45]     simpleCoeffs
[45]     {
[45]         n               ( 4 1 1 );
[45]         delta           0.001;
[45]     }
[45]     hierarchicalCoeffs
[45]     {
[45]         n               ( 3 2 1 );
[45]         delta           0.001;
[45]         order           xyz;
[45]     }
[45]     manualCoeffs
[45]     {
[45]         dataFile        "cellDecomposition";
[45]     }
[45] }
[45] 
[45] Selecting decompositionMethod scotch
[46]  Foam::decompositionMethod::New 
[46] {
[46]     numberOfSubdomains 64;
[46]     method          scotch;
[46]     simpleCoeffs
[46]     {
[46]         n               ( 4 1 1 );
[46]         delta           0.001;
[46]     }
[46]     hierarchicalCoeffs
[46]     {
[46]         n               ( 3 2 1 );
[46]         delta           0.001;
[46]         order           xyz;
[46]     }
[46]     manualCoeffs
[46]     {
[46]         dataFile        "cellDecomposition";
[46]     }
[46] }
[46] 
[46] Selecting decompositionMethod scotch
[47]  Foam::decompositionMethod::New 
[47] {
[47]     numberOfSubdomains 64;
[47]     method          scotch;
[47]     simpleCoeffs
[47]     {
[47]         n               ( 4 1 1 );
[47]         delta           0.001;
[47]     }
[47]     hierarchicalCoeffs
[47]     {
[47]         n               ( 3 2 1 );
[47]         delta           0.001;
[47]         order           xyz;
[47]     }
[47]     manualCoeffs
[47]     {
[47]         dataFile        "cellDecomposition";
[47]     }
[47] }
[47] 
[47] Selecting decompositionMethod scotch
[48]  Foam::decompositionMethod::New 
[48] {
[48]     numberOfSubdomains 64;
[48]     method          scotch;
[48]     simpleCoeffs
[48]     {
[48]         n               ( 4 1 1 );
[48]         delta           0.001;
[48]     }
[48]     hierarchicalCoeffs
[48]     {
[48]         n               ( 3 2 1 );
[48]         delta           0.001;
[48]         order           xyz;
[48]     }
[48]     manualCoeffs
[48]     {
[48]         dataFile        "cellDecomposition";
[48]     }
[48] }
[48] 
[48] Selecting decompositionMethod scotch
[49]  Foam::decompositionMethod::New 
[49] {
[49]     numberOfSubdomains 64;
[49]     method          scotch;
[49]     simpleCoeffs
[49]     {
[49]         n               ( 4 1 1 );
[49]         delta           0.001;
[49]     }
[49]     hierarchicalCoeffs
[49]     {
[49]         n               ( 3 2 1 );
[49]         delta           0.001;
[49]         order           xyz;
[49]     }
[49]     manualCoeffs
[49]     {
[49]         dataFile        "cellDecomposition";
[49]     }
[49] }
[49] 
[49] Selecting decompositionMethod scotch
[50]  Foam::decompositionMethod::New 
[50] {
[50]     numberOfSubdomains 64;
[50]     method          scotch;
[50]     simpleCoeffs
[50]     {
[50]         n               ( 4 1 1 );
[50]         delta           0.001;
[50]     }
[50]     hierarchicalCoeffs
[50]     {
[50]         n               ( 3 2 1 );
[50]         delta           0.001;
[50]         order           xyz;
[50]     }
[50]     manualCoeffs
[50]     {
[50]         dataFile        "cellDecomposition";
[50]     }
[50] }
[50] 
[50] Selecting decompositionMethod scotch
[51]  Foam::decompositionMethod::New 
[51] {
[51]     numberOfSubdomains 64;
[51]     method          scotch;
[51]     simpleCoeffs
[51]     {
[51]         n               ( 4 1 1 );
[51]         delta           0.001;
[51]     }
[51]     hierarchicalCoeffs
[51]     {
[51]         n               ( 3 2 1 );
[51]         delta           0.001;
[51]         order           xyz;
[51]     }
[51]     manualCoeffs
[51]     {
[51]         dataFile        "cellDecomposition";
[51]     }
[51] }
[51] 
[51] Selecting decompositionMethod scotch
[52]  Foam::decompositionMethod::New 
[52] {
[52]     numberOfSubdomains 64;
[52]     method          scotch;
[52]     simpleCoeffs
[52]     {
[52]         n               ( 4 1 1 );
[52]         delta           0.001;
[52]     }
[52]     hierarchicalCoeffs
[52]     {
[52]         n               ( 3 2 1 );
[52]         delta           0.001;
[52]         order           xyz;
[52]     }
[52]     manualCoeffs
[52]     {
[52]         dataFile        "cellDecomposition";
[52]     }
[52] }
[52] 
[52] Selecting decompositionMethod scotch
[53]  Foam::decompositionMethod::New 
[53] {
[53]     numberOfSubdomains 64;
[53]     method          scotch;
[53]     simpleCoeffs
[53]     {
[53]         n               ( 4 1 1 );
[53]         delta           0.001;
[53]     }
[53]     hierarchicalCoeffs
[53]     {
[53]         n               ( 3 2 1 );
[53]         delta           0.001;
[53]         order           xyz;
[53]     }
[53]     manualCoeffs
[53]     {
[53]         dataFile        "cellDecomposition";
[53]     }
[53] }
[53] 
[53] Selecting decompositionMethod scotch
[54]  Foam::decompositionMethod::New 
[54] {
[54]     numberOfSubdomains 64;
[54]     method          scotch;
[54]     simpleCoeffs
[54]     {
[54]         n               ( 4 1 1 );
[54]         delta           0.001;
[54]     }
[54]     hierarchicalCoeffs
[54]     {
[54]         n               ( 3 2 1 );
[54]         delta           0.001;
[54]         order           xyz;
[54]     }
[54]     manualCoeffs
[54]     {
[54]         dataFile        "cellDecomposition";
[54]     }
[54] }
[54] 
[54] Selecting decompositionMethod scotch
[55]  Foam::decompositionMethod::New 
[55] {
[55]     numberOfSubdomains 64;
[55]     method          scotch;
[55]     simpleCoeffs
[55]     {
[55]         n               ( 4 1 1 );
[55]         delta           0.001;
[55]     }
[55]     hierarchicalCoeffs
[55]     {
[55]         n               ( 3 2 1 );
[55]         delta           0.001;
[55]         order           xyz;
[55]     }
[55]     manualCoeffs
[55]     {
[55]         dataFile        "cellDecomposition";
[55]     }
[55] }
[55] 
[55] Selecting decompositionMethod scotch
[56]  Foam::decompositionMethod::New 
[56] {
[56]     numberOfSubdomains 64;
[56]     method          scotch;
[56]     simpleCoeffs
[56]     {
[56]         n               ( 4 1 1 );
[56]         delta           0.001;
[56]     }
[56]     hierarchicalCoeffs
[56]     {
[56]         n               ( 3 2 1 );
[56]         delta           0.001;
[56]         order           xyz;
[56]     }
[56]     manualCoeffs
[56]     {
[56]         dataFile        "cellDecomposition";
[56]     }
[56] }
[56] 
[56] Selecting decompositionMethod scotch
[57]  Foam::decompositionMethod::New 
[57] {
[57]     numberOfSubdomains 64;
[57]     method          scotch;
[57]     simpleCoeffs
[57]     {
[57]         n               ( 4 1 1 );
[57]         delta           0.001;
[57]     }
[57]     hierarchicalCoeffs
[57]     {
[57]         n               ( 3 2 1 );
[57]         delta           0.001;
[57]         order           xyz;
[57]     }
[57]     manualCoeffs
[57]     {
[57]         dataFile        "cellDecomposition";
[57]     }
[57] }
[57] 
[57] Selecting decompositionMethod scotch
[58]  Foam::decompositionMethod::New 
[58] {
[58]     numberOfSubdomains 64;
[58]     method          scotch;
[58]     simpleCoeffs
[58]     {
[58]         n               ( 4 1 1 );
[58]         delta           0.001;
[58]     }
[58]     hierarchicalCoeffs
[58]     {
[58]         n               ( 3 2 1 );
[58]         delta           0.001;
[58]         order           xyz;
[58]     }
[58]     manualCoeffs
[58]     {
[58]         dataFile        "cellDecomposition";
[58]     }
[58] }
[58] 
[58] Selecting decompositionMethod scotch
[59]  Foam::decompositionMethod::New 
[59] {
[59]     numberOfSubdomains 64;
[59]     method          scotch;
[59]     simpleCoeffs
[59]     {
[59]         n               ( 4 1 1 );
[59]         delta           0.001;
[59]     }
[59]     hierarchicalCoeffs
[59]     {
[59]         n               ( 3 2 1 );
[59]         delta           0.001;
[59]         order           xyz;
[59]     }
[59]     manualCoeffs
[59]     {
[59]         dataFile        "cellDecomposition";
[59]     }
[59] }
[59] 
[59] Selecting decompositionMethod scotch
[60]  Foam::decompositionMethod::New 
[60] {
[60]     numberOfSubdomains 64;
[60]     method          scotch;
[60]     simpleCoeffs
[60]     {
[60]         n               ( 4 1 1 );
[60]         delta           0.001;
[60]     }
[60]     hierarchicalCoeffs
[60]     {
[60]         n               ( 3 2 1 );
[60]         delta           0.001;
[60]         order           xyz;
[60]     }
[60]     manualCoeffs
[60]     {
[60]         dataFile        "cellDecomposition";
[60]     }
[60] }
[60] 
[60] Selecting decompositionMethod scotch
[61]  Foam::decompositionMethod::New 
[61] {
[61]     numberOfSubdomains 64;
[61]     method          scotch;
[61]     simpleCoeffs
[61]     {
[61]         n               ( 4 1 1 );
[61]         delta           0.001;
[61]     }
[61]     hierarchicalCoeffs
[61]     {
[61]         n               ( 3 2 1 );
[61]         delta           0.001;
[61]         order           xyz;
[61]     }
[61]     manualCoeffs
[61]     {
[61]         dataFile        "cellDecomposition";
[61]     }
[61] }
[61] 
[61] Selecting decompositionMethod scotch
[62]  Foam::decompositionMethod::New 
[62] {
[62]     numberOfSubdomains 64;
[62]     method          scotch;
[62]     simpleCoeffs
[62]     {
[62]         n               ( 4 1 1 );
[62]         delta           0.001;
[62]     }
[62]     hierarchicalCoeffs
[62]     {
[62]         n               ( 3 2 1 );
[62]         delta           0.001;
[62]         order           xyz;
[62]     }
[62]     manualCoeffs
[62]     {
[62]         dataFile        "cellDecomposition";
[62]     }
[62] }
[62] 
[62] Selecting decompositionMethod scotch
[63]  Foam::decompositionMethod::New 
[63] {
[63]     numberOfSubdomains 64;
[63]     method          scotch;
[63]     simpleCoeffs
[63]     {
[63]         n               ( 4 1 1 );
[63]         delta           0.001;
[63]     }
[63]     hierarchicalCoeffs
[63]     {
[63]         n               ( 3 2 1 );
[63]         delta           0.001;
[63]         order           xyz;
[63]     }
[63]     manualCoeffs
[63]     {
[63]         dataFile        "cellDecomposition";
[63]     }
[63] }
[63] 
[63] Selecting decompositionMethod scotch
Found point (3.0001 3.0001 0.43) in cell 31 on processor 52

Feature refinement iteration 0
------------------------------

Marked for refinement due to explicit features             : 26 cells.
Determined cells to refine in = 0.04 s
Selected for feature refinement : 26 cells (out of 10240)
Edge intersection testing:
    Number of edges             : 32895
    Number of edges to retest   : 920
    Number of intersected edges : 127
Refined mesh in = 0.01 s
After refinement feature refinement iteration 0 : cells:10422  faces:32895  points:12135
Cells per refinement level:
    0	10214
    1	208
Balanced mesh in = 0.11 s
After balancing feature refinement iteration 0 : cells:10422  faces:32895  points:12135
Cells per refinement level:
    0	10214
    1	208

Feature refinement iteration 1
------------------------------

Marked for refinement due to explicit features             : 100 cells.
Determined cells to refine in = 0.05 s
Selected for feature refinement : 116 cells (out of 10422)
Edge intersection testing:
    Number of edges             : 35637
    Number of edges to retest   : 3652
    Number of intersected edges : 726
Refined mesh in = 0.01 s
After refinement feature refinement iteration 1 : cells:11234  faces:35637  points:13274
Cells per refinement level:
    0	10198
    1	236
    2	800
Balanced mesh in = 0.12 s
After balancing feature refinement iteration 1 : cells:11234  faces:35637  points:13274
Cells per refinement level:
    0	10198
    1	236
    2	800

Feature refinement iteration 2
------------------------------

Marked for refinement due to explicit features             : 447 cells.
Determined cells to refine in = 0.05 s
Selected for feature refinement : 531 cells (out of 11234)
Edge intersection testing:
    Number of edges             : 47952
    Number of edges to retest   : 16009
    Number of intersected edges : 3115
Refined mesh in = 0.01 s
After refinement feature refinement iteration 2 : cells:14951  faces:47952  points:18169
Cells per refinement level:
    0	10175
    1	359
    2	841
    3	3576
Balanced mesh in = 0.14 s
After balancing feature refinement iteration 2 : cells:14951  faces:47952  points:18169
Cells per refinement level:
    0	10175
    1	359
    2	841
    3	3576

Feature refinement iteration 3
------------------------------

Marked for refinement due to explicit features             : 1726 cells.
Determined cells to refine in = 0.05 s
Selected for feature refinement : 1999 cells (out of 14951)
Edge intersection testing:
    Number of edges             : 95388
    Number of edges to retest   : 62235
    Number of intersected edges : 11403
Refined mesh in = 0.02 s
After refinement feature refinement iteration 3 : cells:28944  faces:95388  points:37754
Cells per refinement level:
    0	10168
    1	380
    2	890
    3	3698
    4	13808
Balanced mesh in = 0.18 s
After balancing feature refinement iteration 3 : cells:28944  faces:95388  points:37754
Cells per refinement level:
    0	10168
    1	380
    2	890
    3	3698
    4	13808

Feature refinement iteration 4
------------------------------

Marked for refinement due to explicit features             : 5267 cells.
Determined cells to refine in = 0.05 s
Selected for feature refinement : 6709 cells (out of 28944)
Edge intersection testing:
    Number of edges             : 257892
    Number of edges to retest   : 222084
    Number of intersected edges : 36494
Refined mesh in = 0.04 s
After refinement feature refinement iteration 4 : cells:75907  faces:257892  points:107773
Cells per refinement level:
    0	10167
    1	371
    2	888
    3	3516
    4	18829
    5	42136
Balanced mesh in = 0.46 s
After balancing feature refinement iteration 4 : cells:75907  faces:257892  points:107773
Cells per refinement level:
    0	10167
    1	371
    2	888
    3	3516
    4	18829
    5	42136

Feature refinement iteration 5
------------------------------

Marked for refinement due to explicit features             : 13633 cells.
Determined cells to refine in = 0.06 s
Selected for feature refinement : 19632 cells (out of 75907)
Edge intersection testing:
    Number of edges             : 739599
    Number of edges to retest   : 688975
    Number of intersected edges : 103926
Refined mesh in = 0.06 s
After refinement feature refinement iteration 5 : cells:213331  faces:739599  points:320459
Cells per refinement level:
    0	10164
    1	378
    2	940
    3	3590
    4	18316
    5	70879
    6	109064
Balanced mesh in = 1.27 s
After balancing feature refinement iteration 5 : cells:213331  faces:739599  points:320459
Cells per refinement level:
    0	10164
    1	378
    2	940
    3	3590
    4	18316
    5	70879
    6	109064

Feature refinement iteration 6
------------------------------

Marked for refinement due to explicit features             : 0 cells.
Determined cells to refine in = 0.1 s
Selected for feature refinement : 0 cells (out of 213331)
Stopping refining since too few cells selected.


Surface refinement iteration 0
------------------------------

Marked for refinement due to surface intersection          : 5609 cells.
Marked for refinement due to curvature/regions             : 15942 cells.
Determined cells to refine in = 0.02 s
Selected for refinement : 22975 cells (out of 213331)
Edge intersection testing:
    Number of edges             : 1251360
    Number of edges to retest   : 967945
    Number of intersected edges : 151274
Refined mesh in = 0.1 s
After refinement surface refinement iteration 0 : cells:374156  faces:1251360  points:506466
Cells per refinement level:
    0	10162
    1	374
    2	1025
    3	3412
    4	18382
    5	104201
    6	236600
Balanced mesh in = 2.48 s
After balancing surface refinement iteration 0 : cells:374156  faces:1251360  points:506466
Cells per refinement level:
    0	10162
    1	374
    2	1025
    3	3412
    4	18382
    5	104201
    6	236600

Surface refinement iteration 1
------------------------------

Marked for refinement due to surface intersection          : 1968 cells.
Marked for refinement due to curvature/regions             : 7060 cells.
Determined cells to refine in = 0.03 s
Selected for refinement : 9676 cells (out of 374156)
Edge intersection testing:
    Number of edges             : 1471872
    Number of edges to retest   : 417254
    Number of intersected edges : 174972
Refined mesh in = 0.1 s
After refinement surface refinement iteration 1 : cells:441888  faces:1471872  points:591007
Cells per refinement level:
    0	10162
    1	370
    2	1029
    3	3403
    4	17895
    5	115949
    6	293080
Balanced mesh in = 2.75 s
After balancing surface refinement iteration 1 : cells:441888  faces:1471872  points:591007
Cells per refinement level:
    0	10162
    1	370
    2	1029
    3	3403
    4	17895
    5	115949
    6	293080

Surface refinement iteration 2
------------------------------

Marked for refinement due to surface intersection          : 301 cells.
Marked for refinement due to curvature/regions             : 1356 cells.
Determined cells to refine in = 0.04 s
Selected for refinement : 1773 cells (out of 441888)
Edge intersection testing:
    Number of edges             : 1512657
    Number of edges to retest   : 91872
    Number of intersected edges : 179252
Refined mesh in = 0.08 s
After refinement surface refinement iteration 2 : cells:454299  faces:1512657  points:606921
Cells per refinement level:
    0	10162
    1	370
    2	1027
    3	3390
    4	17741
    5	117681
    6	303928
Balanced mesh in = 2.8 s
After balancing surface refinement iteration 2 : cells:454299  faces:1512657  points:606921
Cells per refinement level:
    0	10162
    1	370
    2	1027
    3	3390
    4	17741
    5	117681
    6	303928

Surface refinement iteration 3
------------------------------

Marked for refinement due to surface intersection          : 6 cells.
Marked for refinement due to curvature/regions             : 113 cells.
Determined cells to refine in = 0.04 s
Selected for refinement : 138 cells (out of 454299)
Edge intersection testing:
    Number of edges             : 1515726
    Number of edges to retest   : 10809
    Number of intersected edges : 179418
Refined mesh in = 0.07 s
After refinement surface refinement iteration 3 : cells:455265  faces:1515726  points:608039
Cells per refinement level:
    0	10162
    1	370
    2	1027
    3	3386
    4	17752
    5	117736
    6	304832
Skipping balancing since max unbalance 0.0192605 is less than allowable 0.1

Surface refinement iteration 4
------------------------------

Marked for refinement due to surface intersection          : 0 cells.
Marked for refinement due to curvature/regions             : 8 cells.
Determined cells to refine in = 0.03 s
Selected for refinement : 9 cells (out of 455265)
Edge intersection testing:
    Number of edges             : 1515906
    Number of edges to retest   : 771
    Number of intersected edges : 179427
Refined mesh in = 0.07 s
After refinement surface refinement iteration 4 : cells:455328  faces:1515906  points:608090
Cells per refinement level:
    0	10162
    1	370
    2	1027
    3	3386
    4	17751
    5	117736
    6	304896
Skipping balancing since max unbalance 0.0220692 is less than allowable 0.1

Surface refinement iteration 5
------------------------------

Marked for refinement due to surface intersection          : 0 cells.
Marked for refinement due to curvature/regions             : 2 cells.
Determined cells to refine in = 0.03 s
Selected for refinement : 2 cells (out of 455328)
Edge intersection testing:
    Number of edges             : 1515948
    Number of edges to retest   : 182
    Number of intersected edges : 179430
Refined mesh in = 0.07 s
After refinement surface refinement iteration 5 : cells:455342  faces:1515948  points:608104
Cells per refinement level:
    0	10162
    1	370
    2	1027
    3	3386
    4	17751
    5	117734
    6	304912
Skipping balancing since max unbalance 0.0220692 is less than allowable 0.1

Surface refinement iteration 6
------------------------------

Marked for refinement due to surface intersection          : 0 cells.
Marked for refinement due to curvature/regions             : 0 cells.
Determined cells to refine in = 0.03 s
Selected for refinement : 0 cells (out of 455342)
Stopping refining since too few cells selected.


Removing mesh beyond surface intersections
------------------------------------------

Found point (3.0001 3.0001 0.43) in global region 0 out of 28 regions.
Keeping all cells in region 0 containing point (3.0001 3.0001 0.43)
Selected for keeping : 422790 cells.
Edge intersection testing:
    Number of edges             : 1441377
    Number of edges to retest   : 73117
    Number of intersected edges : 179431

Shell refinement iteration 0
----------------------------

Marked for refinement due to distance to explicit features : 0 cells.
Marked for refinement due to refinement shells             : 4703 cells.
Determined cells to refine in = 0.2 s
Selected for internal refinement : 63647 cells (out of 422790)
Edge intersection testing:
    Number of edges             : 2790690
    Number of edges to retest   : 2496548
    Number of intersected edges : 202096
Refined mesh in = 0.18 s
After refinement shell refinement iteration 0 : cells:868319  faces:2790690  points:1049024
Cells per refinement level:
    0	9913
    1	2048
    2	2512
    3	8216
    4	33169
    5	116070
    6	696391
Balanced mesh in = 4.8 s
After balancing shell refinement iteration 0 : cells:868319  faces:2790690  points:1049427
Cells per refinement level:
    0	9913
    1	2048
    2	2512
    3	8216
    4	33169
    5	116070
    6	696391

Shell refinement iteration 1
----------------------------

Marked for refinement due to distance to explicit features : 0 cells.
Marked for refinement due to refinement shells             : 10920 cells.
Determined cells to refine in = 0.05 s
Selected for internal refinement : 25259 cells (out of 868319)
Edge intersection testing:
    Number of edges             : 3329418
    Number of edges to retest   : 1223264
    Number of intersected edges : 209890
Refined mesh in = 0.23 s
After refinement shell refinement iteration 1 : cells:1045132  faces:3329418  points:1233888
Cells per refinement level:
    0	9619
    1	3040
    2	11193
    3	18120
    4	91640
    5	129649
    6	781871
Balanced mesh in = 5.7 s
After balancing shell refinement iteration 1 : cells:1045132  faces:3329418  points:1234173
Cells per refinement level:
    0	9619
    1	3040
    2	11193
    3	18120
    4	91640
    5	129649
    6	781871

Shell refinement iteration 2
----------------------------

Marked for refinement due to distance to explicit features : 0 cells.
Marked for refinement due to refinement shells             : 24888 cells.
Determined cells to refine in = 0.05 s
Selected for internal refinement : 27108 cells (out of 1045132)
Edge intersection testing:
    Number of edges             : 3907149
    Number of edges to retest   : 778409
    Number of intersected edges : 210257
Refined mesh in = 0.42 s
After refinement shell refinement iteration 2 : cells:1234888  faces:3907149  points:1432437
Cells per refinement level:
    0	9320
    1	4377
    2	9320
    3	86016
    4	208055
    5	132857
    6	784943
Balanced mesh in = 6.89 s
After balancing shell refinement iteration 2 : cells:1234888  faces:3907149  points:1432644
Cells per refinement level:
    0	9320
    1	4377
    2	9320
    3	86016
    4	208055
    5	132857
    6	784943

Shell refinement iteration 3
----------------------------

Marked for refinement due to distance to explicit features : 0 cells.
Marked for refinement due to refinement shells             : 79424 cells.
Determined cells to refine in = 0.06 s
Selected for internal refinement : 82515 cells (out of 1234888)
Edge intersection testing:
    Number of edges             : 5659338
    Number of edges to retest   : 2093594
    Number of intersected edges : 210396
Refined mesh in = 0.8 s
After refinement shell refinement iteration 3 : cells:1812493  faces:5659338  points:2029717
Cells per refinement level:
    0	9212
    1	4310
    2	11489
    3	52216
    4	816297
    5	132818
    6	786151
Balanced mesh in = 9.74 s
After balancing shell refinement iteration 3 : cells:1812493  faces:5659338  points:2029896
Cells per refinement level:
    0	9212
    1	4310
    2	11489
    3	52216
    4	816297
    5	132818
    6	786151

Shell refinement iteration 4
----------------------------

Marked for refinement due to distance to explicit features : 0 cells.
Marked for refinement due to refinement shells             : 20352 cells.
Determined cells to refine in = 0.08 s
Selected for internal refinement : 22583 cells (out of 1812493)
Edge intersection testing:
    Number of edges             : 6135267
    Number of edges to retest   : 705528
    Number of intersected edges : 210422
Refined mesh in = 0.28 s
After refinement shell refinement iteration 4 : cells:1970574  faces:6135267  points:2189669
Cells per refinement level:
    0	9176
    1	4388
    2	11240
    3	47296
    4	979107
    5	132816
    6	786551
Balanced mesh in = 10.15 s
After balancing shell refinement iteration 4 : cells:1970574  faces:6135267  points:2189798
Cells per refinement level:
    0	9176
    1	4388
    2	11240
    3	47296
    4	979107
    5	132816
    6	786551

Shell refinement iteration 5
----------------------------

Marked for refinement due to distance to explicit features : 0 cells.
Marked for refinement due to refinement shells             : 0 cells.
Determined cells to refine in = 0.08 s
Selected for internal refinement : 622 cells (out of 1970574)
Edge intersection testing:
    Number of edges             : 6148401
    Number of edges to retest   : 38401
    Number of intersected edges : 210428
Refined mesh in = 0.23 s
After refinement shell refinement iteration 5 : cells:1974928  faces:6148401  points:2194222
Cells per refinement level:
    0	9130
    1	4220
    2	15528
    3	47296
    4	979101
    5	132830
    6	786823
Skipping balancing since max unbalance 0.0161384 is less than allowable 0.1

Shell refinement iteration 6
----------------------------

Marked for refinement due to distance to explicit features : 0 cells.
Marked for refinement due to refinement shells             : 0 cells.
Determined cells to refine in = 0.07 s
Selected for internal refinement : 51 cells (out of 1974928)
Edge intersection testing:
    Number of edges             : 6149466
    Number of edges to retest   : 4062
    Number of intersected edges : 210428
Refined mesh in = 0.23 s
After refinement shell refinement iteration 6 : cells:1975285  faces:6149466  points:2194573
Cells per refinement level:
    0	9079
    1	4628
    2	15528
    3	47296
    4	979101
    5	132830
    6	786823
Skipping balancing since max unbalance 0.0171079 is less than allowable 0.1

Shell refinement iteration 7
----------------------------

Marked for refinement due to distance to explicit features : 0 cells.
Marked for refinement due to refinement shells             : 0 cells.
Determined cells to refine in = 0.07 s
Selected for internal refinement : 0 cells (out of 1975285)
Stopping refining since too few cells selected.


Dangling coarse cells refinement iteration 0
--------------------------------------------

Determined cells to refine in = 0.02 s
Selected for refinement : 300 cells (out of 1975285)
Edge intersection testing:
    Number of edges             : 6153939
    Number of edges to retest   : 36932
    Number of intersected edges : 210442
Refined mesh in = 0.23 s
After refinement coarse cell refinement iteration 0 : cells:1977385  faces:6153939  points:2195164
Cells per refinement level:
    0	9079
    1	4628
    2	15528
    3	47296
    4	979053
    5	132962
    6	788839
Skipping balancing since max unbalance 0.0160215 is less than allowable 0.1

Dangling coarse cells refinement iteration 1
--------------------------------------------

Determined cells to refine in = 0.04 s
Selected for refinement : 40 cells (out of 1977385)
Edge intersection testing:
    Number of edges             : 6154533
    Number of edges to retest   : 5091
    Number of intersected edges : 210442
Refined mesh in = 0.22 s
After refinement coarse cell refinement iteration 1 : cells:1977665  faces:6154533  points:2195242
Cells per refinement level:
    0	9079
    1	4628
    2	15528
    3	47296
    4	979047
    5	132976
    6	789111
Skipping balancing since max unbalance 0.0158571 is less than allowable 0.1

Dangling coarse cells refinement iteration 2
--------------------------------------------

Determined cells to refine in = 0.04 s
Selected for refinement : 8 cells (out of 1977665)
Stopping refining since too few cells selected.


Dangling coarse cells refinement iteration 0
--------------------------------------------

Determined cells to refine in = 0 s
Selected for refinement : 55 cells (out of 1977665)
Edge intersection testing:
    Number of edges             : 6155193
    Number of edges to retest   : 6892
    Number of intersected edges : 210440
Refined mesh in = 0.22 s
After refinement coarse cell refinement iteration 0 : cells:1978050  faces:6155193  points:2195297
Cells per refinement level:
    0	9079
    1	4628
    2	15528
    3	47296
    4	979042
    5	132966
    6	789511
Skipping balancing since max unbalance 0.0156599 is less than allowable 0.1

Dangling coarse cells refinement iteration 1
--------------------------------------------

Determined cells to refine in = 0.05 s
Selected for refinement : 0 cells (out of 1978050)
Stopping refining since too few cells selected.


Splitting mesh at surface intersections
---------------------------------------

Introducing baffles for 210440 faces that are intersected by the surface.

Edge intersection testing:
    Number of edges             : 6365554
    Number of edges to retest   : 1178863
    Number of intersected edges : 418452
Created baffles in = 0.22 s


After introducing baffles : cells:1978050  faces:6365554  points:2195459
Cells per refinement level:
    0	9079
    1	4628
    2	15528
    3	47296
    4	979042
    5	132966
    6	789511

Introducing baffles to block off problem cells
----------------------------------------------

markFacesOnProblemCells : marked 135072 additional internal faces to be converted into baffles.
Analyzed problem cells in = 0.19 s


Introducing baffles to delete problem cells.

Edge intersection testing:
    Number of edges             : 6500626
    Number of edges to retest   : 542393
    Number of intersected edges : 418584
Created baffles in = 0.21 s


After introducing baffles : cells:1978050  faces:6500626  points:2198922
Cells per refinement level:
    0	9079
    1	4628
    2	15528
    3	47296
    4	979042
    5	132966
    6	789511

Remove unreachable sections of mesh
-----------------------------------

Keeping all cells in region 0 containing point (3.0001 3.0001 0.43)
Selected for keeping : 1760119 cells.
Edge intersection testing:
    Number of edges             : 5550701
    Number of edges to retest   : 0
    Number of intersected edges : 235171
Split mesh in = 0.87 s


After subsetting : cells:1760119  faces:5550701  points:1991566
Cells per refinement level:
    0	9079
    1	4628
    2	15528
    3	47296
    4	979042
    5	120640
    6	583906

Handling cells with snap problems
---------------------------------

Introducing baffles for 235171 faces that are intersected by the surface.

Edge intersection testing:
    Number of edges             : 5550701
    Number of edges to retest   : 704472
    Number of intersected edges : 235171
Created baffles in = 0.21 s


After introducing baffles : cells:1760119  faces:5550701  points:1991566
Cells per refinement level:
    0	9079
    1	4628
    2	15528
    3	47296
    4	979042
    5	120640
    6	583906

Introducing baffles to block off problem cells
----------------------------------------------

markFacesOnProblemCells : marked 192 additional internal faces to be converted into baffles.
Analyzed problem cells in = 0.17 s


Introducing baffles to delete problem cells.

Edge intersection testing:
    Number of edges             : 5550893
    Number of edges to retest   : 928
    Number of intersected edges : 235171
Created baffles in = 0.15 s


After introducing baffles : cells:1760119  faces:5550893  points:1991575
Cells per refinement level:
    0	9079
    1	4628
    2	15528
    3	47296
    4	979042
    5	120640
    6	583906

Remove unreachable sections of mesh
-----------------------------------

Keeping all cells in region 0 containing point (3.0001 3.0001 0.43)
Selected for keeping : 1760029 cells.
Edge intersection testing:
    Number of edges             : 5550353
    Number of edges to retest   : 0
    Number of intersected edges : 235016
Split mesh in = 0.79 s


After subsetting : cells:1760029  faces:5550353  points:1991476
Cells per refinement level:
    0	9079
    1	4628
    2	15528
    3	47296
    4	979042
    5	120640
    6	583816

Merge free-standing baffles
---------------------------

freeStandingBaffles : detected 1413 free-standing baffles out of 36291

freeStandingBaffles : detected 134 planar (within 30 degrees) free-standing baffles out of 1413

Detected free-standing baffles : 134
Edge intersection testing:
    Number of edges             : 5550219
    Number of edges to retest   : 134
    Number of intersected edges : 234882

Introducing baffles to block off problem cells
----------------------------------------------

markFacesOnProblemCells : marked 92 additional internal faces to be converted into baffles.
Analyzed problem cells in = 0.39 s


Introducing baffles to delete problem cells.

Edge intersection testing:
    Number of edges             : 5550311
    Number of edges to retest   : 459
    Number of intersected edges : 234882
Created baffles in = 0.14 s


After introducing baffles : cells:1760029  faces:5550311  points:1991484
Cells per refinement level:
    0	9079
    1	4628
    2	15528
    3	47296
    4	979042
    5	120640
    6	583816
Merged free-standing baffles in = 0.04 s


dupNonManifoldPoints : Found : 37217 non-manifold points (out of 2152416)
Edge intersection testing:
    Number of edges             : 5550311
    Number of edges to retest   : 0
    Number of intersected edges : 234882
Detected unsplittable baffles : 126
Edge intersection testing:
    Number of edges             : 5550185
    Number of edges to retest   : 126
    Number of intersected edges : 234756
Keeping all cells in region 0 containing point (3.0001 3.0001 0.43)
Selected for keeping : 1759987 cells.
Edge intersection testing:
    Number of edges             : 5549933
    Number of edges to retest   : 0
    Number of intersected edges : 234686
Merged free-standing baffles in = 1.08 s.

Merge refined boundary faces
----------------------------

Merging 773 sets of faces.

Edge intersection testing:
    Number of edges             : 5548760
    Number of edges to retest   : 7281
    Number of intersected edges : 233524

Undo iteration 0
----------------
Checking faces in error :
    non-orthogonality > 65  degrees                        : 0
    faces with face pyramid volume < 1e-13                 : 0
    faces with face-decomposition tet quality < 1e-15      : 0
    faces with concavity > 80  degrees                     : 0
    faces with skewness > 4   (internal) or 20  (boundary) : 0
    faces with interpolation weights (0..1)  < 0.02        : 0
    faces with volume ratio of neighbour cells < 0.01      : 0
    faces with face twist < 0.02                           : 0
    faces on cells with determinant < 0.001                : 0

Merging all points on surface that
- are used by only two boundary faces and
- make an angle with a cosine of more than 0.707107.

Removing 978 straight edge points ...

Edge intersection testing:
    Number of edges             : 5548760
    Number of edges to retest   : 8354
    Number of intersected edges : 233524

Undo iteration 0
----------------
Checking faces in error :
    non-orthogonality > 65  degrees                        : 0
    faces with face pyramid volume < 1e-13                 : 0
    faces with face-decomposition tet quality < 1e-15      : 0
    faces with concavity > 80  degrees                     : 0
    faces with skewness > 4   (internal) or 20  (boundary) : 0
    faces with interpolation weights (0..1)  < 0.02        : 0
    faces with volume ratio of neighbour cells < 0.01      : 0
    faces with face twist < 0.02                           : 0
    faces on cells with determinant < 0.001                : 0

Doing final balancing
---------------------

Found 0 zoned faces to keep together.
Found 0 separated coupled faces to keep together.
Refined mesh : cells:1759987  faces:5548760  points:2026589
Cells per refinement level:
    0	9079
    1	4628
    2	15528
    3	47296
    4	979042
    5	120640
    6	583774
Writing mesh to time constant
Wrote mesh in = 9.65 s.
Mesh refined in = 66.81 s.

Morphing phase
--------------


Snapping to features in 10 iterations ...
Constructing mesh displacer ...
Using mesh parameters 
{
    maxNonOrtho     65;
    maxBoundarySkewness 20;
    maxInternalSkewness 4;
    maxConcave      80;
    minVol          1e-13;
    minTetQuality   1e-15;
    minArea         -1;
    minTwist        0.02;
    minDeterminant  0.001;
    minFaceWeight   0.02;
    minVolRatio     0.01;
    minTriangleTwist -1;
    nSmoothScale    4;
    errorReduction  0.75;
}


Checking initial mesh ...
Checking faces in error :
    non-orthogonality > 65  degrees                        : 0
    faces with face pyramid volume < 1e-13                 : 0
    faces with face-decomposition tet quality < 1e-15      : 0
    faces with concavity > 80  degrees                     : 0
    faces with skewness > 4   (internal) or 20  (boundary) : 0
    faces with interpolation weights (0..1)  < 0.02        : 0
    faces with volume ratio of neighbour cells < 0.01      : 0
    faces with face twist < 0.02                           : 0
    faces on cells with determinant < 0.001                : 0
Detected 0 illegal faces (concave, zero area or negative cell pyramid volume)
Checked initial mesh in = 0.19 s


Smoothing patch points ...
Smoothing iteration 0
Found 28367 non-manifold point(s).

Scaling iteration 0
Moving mesh using displacement scaling : min:1  max:1
Checking faces in error :
    non-orthogonality > 65  degrees                        : 0
    faces with face pyramid volume < 1e-13                 : 0
    faces with face-decomposition tet quality < 1e-15      : 0
    faces with concavity > 80  degrees                     : 0
    faces with skewness > 4   (internal) or 20  (boundary) : 0
    faces with interpolation weights (0..1)  < 0.02        : 0
    faces with volume ratio of neighbour cells < 0.01      : 0
    faces with face twist < 0.02                           : 0
    faces on cells with determinant < 0.001                : 0
Successfully moved mesh

Smoothing iteration 1
Found 0 non-manifold point(s).

Scaling iteration 0
Moving mesh using displacement scaling : min:1  max:1
Checking faces in error :
    non-orthogonality > 65  degrees                        : 0
    faces with face pyramid volume < 1e-13                 : 0
    faces with face-decomposition tet quality < 1e-15      : 3
    faces with concavity > 80  degrees                     : 0
    faces with skewness > 4   (internal) or 20  (boundary) : 0
    faces with interpolation weights (0..1)  < 0.02        : 0
    faces with volume ratio of neighbour cells < 0.01      : 0
    faces with face twist < 0.02                           : 0
    faces on cells with determinant < 0.001                : 0

Scaling iteration 1
Moving mesh using displacement scaling : min:0.75  max:1
Checking faces in error :
    non-orthogonality > 65  degrees                        : 0
    faces with face pyramid volume < 1e-13                 : 0
    faces with face-decomposition tet quality < 1e-15      : 3
    faces with concavity > 80  degrees                     : 0
    faces with skewness > 4   (internal) or 20  (boundary) : 0
    faces with interpolation weights (0..1)  < 0.02        : 0
    faces with volume ratio of neighbour cells < 0.01      : 0
    faces with face twist < 0.02                           : 0
    faces on cells with determinant < 0.001                : 0

Scaling iteration 2
Moving mesh using displacement scaling : min:0.5625  max:1
Checking faces in error :
    non-orthogonality > 65  degrees                        : 0
    faces with face pyramid volume < 1e-13                 : 0
    faces with face-decomposition tet quality < 1e-15      : 2
    faces with concavity > 80  degrees                     : 0
    faces with skewness > 4   (internal) or 20  (boundary) : 0
    faces with interpolation weights (0..1)  < 0.02        : 0
    faces with volume ratio of neighbour cells < 0.01      : 0
    faces with face twist < 0.02                           : 0
    faces on cells with determinant < 0.001                : 0

Scaling iteration 3
Moving mesh using displacement scaling : min:0.421875  max:1
Checking faces in error :
    non-orthogonality > 65  degrees                        : 0
    faces with face pyramid volume < 1e-13                 : 0
    faces with face-decomposition tet quality < 1e-15      : 2
    faces with concavity > 80  degrees                     : 0
    faces with skewness > 4   (internal) or 20  (boundary) : 0
    faces with interpolation weights (0..1)  < 0.02        : 0
    faces with volume ratio of neighbour cells < 0.01      : 0
    faces with face twist < 0.02                           : 0
    faces on cells with determinant < 0.001                : 0

Scaling iteration 4
Moving mesh using displacement scaling : min:0.316406  max:1
Checking faces in error :
    non-orthogonality > 65  degrees                        : 0
    faces with face pyramid volume < 1e-13                 : 0
    faces with face-decomposition tet quality < 1e-15      : 0
    faces with concavity > 80  degrees                     : 0
    faces with skewness > 4   (internal) or 20  (boundary) : 0
    faces with interpolation weights (0..1)  < 0.02        : 0
    faces with volume ratio of neighbour cells < 0.01      : 0
    faces with face twist < 0.02                           : 0
    faces on cells with determinant < 0.001                : 0
Successfully moved mesh

Smoothing iteration 2
Found 0 non-manifold point(s).

Scaling iteration 0
Moving mesh using displacement scaling : min:1  max:1
Checking faces in error :
    non-orthogonality > 65  degrees                        : 0
    faces with face pyramid volume < 1e-13                 : 0
    faces with face-decomposition tet quality < 1e-15      : 8
    faces with concavity > 80  degrees                     : 0
    faces with skewness > 4   (internal) or 20  (boundary) : 0
    faces with interpolation weights (0..1)  < 0.02        : 0
    faces with volume ratio of neighbour cells < 0.01      : 0
    faces with face twist < 0.02                           : 0
    faces on cells with determinant < 0.001                : 0

Scaling iteration 1
Moving mesh using displacement scaling : min:0.75  max:1
Checking faces in error :
    non-orthogonality > 65  degrees                        : 0
    faces with face pyramid volume < 1e-13                 : 0
    faces with face-decomposition tet quality < 1e-15      : 5
    faces with concavity > 80  degrees                     : 0
    faces with skewness > 4   (internal) or 20  (boundary) : 0
    faces with interpolation weights (0..1)  < 0.02        : 0
    faces with volume ratio of neighbour cells < 0.01      : 0
    faces with face twist < 0.02                           : 0
    faces on cells with determinant < 0.001                : 0

Scaling iteration 2
Moving mesh using displacement scaling : min:0.5625  max:1
Checking faces in error :
    non-orthogonality > 65  degrees                        : 0
    faces with face pyramid volume < 1e-13                 : 0
    faces with face-decomposition tet quality < 1e-15      : 5
    faces with concavity > 80  degrees                     : 0
    faces with skewness > 4   (internal) or 20  (boundary) : 0
    faces with interpolation weights (0..1)  < 0.02        : 0
    faces with volume ratio of neighbour cells < 0.01      : 0
    faces with face twist < 0.02                           : 0
    faces on cells with determinant < 0.001                : 0

Scaling iteration 3
Moving mesh using displacement scaling : min:0.421875  max:1
Checking faces in error :
    non-orthogonality > 65  degrees                        : 0
    faces with face pyramid volume < 1e-13                 : 0
    faces with face-decomposition tet quality < 1e-15      : 3
    faces with concavity > 80  degrees                     : 0
    faces with skewness > 4   (internal) or 20  (boundary) : 0
    faces with interpolation weights (0..1)  < 0.02        : 0
    faces with volume ratio of neighbour cells < 0.01      : 0
    faces with face twist < 0.02                           : 0
    faces on cells with determinant < 0.001                : 0

Scaling iteration 4
Moving mesh using displacement scaling : min:0.316406  max:1
Checking faces in error :
    non-orthogonality > 65  degrees                        : 0
    faces with face pyramid volume < 1e-13                 : 0
    faces with face-decomposition tet quality < 1e-15      : 3
    faces with concavity > 80  degrees                     : 0
    faces with skewness > 4   (internal) or 20  (boundary) : 0
    faces with interpolation weights (0..1)  < 0.02        : 0
    faces with volume ratio of neighbour cells < 0.01      : 0
    faces with face twist < 0.02                           : 0
    faces on cells with determinant < 0.001                : 0

Scaling iteration 5
Displacement scaling for error reduction set to 0.
Moving mesh using displacement scaling : min:0.237305  max:1
Checking faces in error :
    non-orthogonality > 65  degrees                        : 0
    faces with face pyramid volume < 1e-13                 : 0
    faces with face-decomposition tet quality < 1e-15      : 3
    faces with concavity > 80  degrees                     : 0
    faces with skewness > 4   (internal) or 20  (boundary) : 0
    faces with interpolation weights (0..1)  < 0.02        : 0
    faces with volume ratio of neighbour cells < 0.01      : 0
    faces with face twist < 0.02                           : 0
    faces on cells with determinant < 0.001                : 0

Scaling iteration 6
Moving mesh using displacement scaling : min:0  max:1
Checking faces in error :
    non-orthogonality > 65  degrees                        : 0
    faces with face pyramid volume < 1e-13                 : 0
    faces with face-decomposition tet quality < 1e-15      : 0
    faces with concavity > 80  degrees                     : 0
    faces with skewness > 4   (internal) or 20  (boundary) : 0
    faces with interpolation weights (0..1)  < 0.02        : 0
    faces with volume ratio of neighbour cells < 0.01      : 0
    faces with face twist < 0.02                           : 0
    faces on cells with determinant < 0.001                : 0
Successfully moved mesh

Patch points smoothed in = 1.14 s



Morph iteration 0
-----------------
Calculating patchDisplacement as distance to nearest surface point ...
Wanted displacement : average:0.00153941 min:4.9335e-10 max:0.0113036
Calculated surface displacement in = 0.03 s


Detecting near surfaces ...
Overriding nearest with intersection of close gaps at 300 out of 250295 points.
Overriding displacement on features :
   implicit features    : false
   explicit features    : true
   multi-patch features : false

Detected 4301 baffle edges out of 489049 edges.
Initially selected 54406 points out of 250295 for reverse attraction.
Selected 126497 points out of 250295 for reverse attraction.
Stringing feature edges : changed 4499 points
Stringing feature edges : changed 288 points
Stringing feature edges : changed 77 points
[...]
    faces with concavity > 80  degrees                     : 0
    faces with skewness > 4   (internal) or 20  (boundary) : 0
    faces with interpolation weights (0..1)  < 0.02        : 0
    faces with volume ratio of neighbour cells < 0.01      : 0
    faces with face twist < 0.02                           : 0
    faces on cells with determinant < 0.001                : 0
displacementMedialAxis : Successfully moved mesh
displacementMedialAxis : Finished moving mesh ...
truncateDisplacement : Unextruded 0 faces due to non-consecutive vertices being extruded.
truncateDisplacement : Unextruded 0 faces due to stringed edges with inconsistent extrusion.

Setting up information for layer truncation ...

Checking mesh with layer ...
Checking faces in error :
    non-orthogonality > 65  degrees                        : 4
    faces with face pyramid volume < 1e-13                 : 0
    faces with face-decomposition tet quality < 1e-15      : 0
    faces with concavity > 80  degrees                     : 0
    faces with skewness > 4   (internal) or 20  (boundary) : 0
    faces with interpolation weights (0..1)  < 0.02        : 0
    faces with volume ratio of neighbour cells < 0.01      : 0
    faces with face twist < 0.02                           : 0
    faces on cells with determinant < 0.001                : 0
Detected 4 illegal faces (concave, zero area or negative cell pyramid volume)
Extruding 137888 out of 182997 faces (75.3499%). Removed extrusion at 4 faces.
Added 137892 out of 182997 cells (75.3521%).


Layer addition iteration 19
--------------------------

Determining displacement for added points according to pointNormal ...
Detected 0 points with point normal pointing through faces.
Reset displacement at 0 points to average of surrounding points.

displacementMedialAxis : Smoothing using Medial Axis ...
displacementMedialAxis : Reducing layer thickness at 500 nodes where thickness to medial axis distance is large 
displacementMedialAxis : Removing isolated regions ...
displacementMedialAxis : Number of isolated points extrusion stopped : 2
displacementMedialAxis : Smoothing field ...
    Iteration 0   residual 4.70361e-05
displacementMedialAxis : Moving mesh ...
displacementMedialAxis : Iteration 0
Moving mesh using displacement scaling : min:1  max:1
Checking faces in error :
    non-orthogonality > 65  degrees                        : 0
    faces with face pyramid volume < 1e-13                 : 0
    faces with face-decomposition tet quality < 1e-15      : 23
    faces with concavity > 80  degrees                     : 0
    faces with skewness > 4   (internal) or 20  (boundary) : 0
    faces with interpolation weights (0..1)  < 0.02        : 0
    faces with volume ratio of neighbour cells < 0.01      : 0
    faces with face twist < 0.02                           : 1
    faces on cells with determinant < 0.001                : 0
displacementMedialAxis : Iteration 1
Moving mesh using displacement scaling : min:0.75  max:1
Checking faces in error :
    non-orthogonality > 65  degrees                        : 0
    faces with face pyramid volume < 1e-13                 : 0
    faces with face-decomposition tet quality < 1e-15      : 6
    faces with concavity > 80  degrees                     : 0
    faces with skewness > 4   (internal) or 20  (boundary) : 0
    faces with interpolation weights (0..1)  < 0.02        : 0
    faces with volume ratio of neighbour cells < 0.01      : 0
    faces with face twist < 0.02                           : 1
    faces on cells with determinant < 0.001                : 0
displacementMedialAxis : Iteration 2
Moving mesh using displacement scaling : min:0.5625  max:1
Checking faces in error :
    non-orthogonality > 65  degrees                        : 0
    faces with face pyramid volume < 1e-13                 : 0
    faces with face-decomposition tet quality < 1e-15      : 2
    faces with concavity > 80  degrees                     : 0
    faces with skewness > 4   (internal) or 20  (boundary) : 0
    faces with interpolation weights (0..1)  < 0.02        : 0
    faces with volume ratio of neighbour cells < 0.01      : 0
    faces with face twist < 0.02                           : 1
    faces on cells with determinant < 0.001                : 0
displacementMedialAxis : Iteration 3
displacementMedialAxis : Displacement scaling for error reduction set to 0.
Moving mesh using displacement scaling : min:0.421875  max:1
Checking faces in error :
    non-orthogonality > 65  degrees                        : 0
    faces with face pyramid volume < 1e-13                 : 0
    faces with face-decomposition tet quality < 1e-15      : 1
    faces with concavity > 80  degrees                     : 0
    faces with skewness > 4   (internal) or 20  (boundary) : 0
    faces with interpolation weights (0..1)  < 0.02        : 0
    faces with volume ratio of neighbour cells < 0.01      : 0
    faces with face twist < 0.02                           : 1
    faces on cells with determinant < 0.001                : 0
displacementMedialAxis : Iteration 4
Moving mesh using displacement scaling : min:0  max:1
Checking faces in error :
    non-orthogonality > 65  degrees                        : 0
    faces with face pyramid volume < 1e-13                 : 0
    faces with face-decomposition tet quality < 1e-15      : 0
    faces with concavity > 80  degrees                     : 0
    faces with skewness > 4   (internal) or 20  (boundary) : 0
    faces with interpolation weights (0..1)  < 0.02        : 0
    faces with volume ratio of neighbour cells < 0.01      : 0
    faces with face twist < 0.02                           : 0
    faces on cells with determinant < 0.001                : 0
displacementMedialAxis : Successfully moved mesh
displacementMedialAxis : Finished moving mesh ...
truncateDisplacement : Unextruded 1 faces due to non-consecutive vertices being extruded.
truncateDisplacement : Unextruded 1 faces due to stringed edges with inconsistent extrusion.
truncateDisplacement : Unextruded 0 faces due to non-consecutive vertices being extruded.
truncateDisplacement : Unextruded 0 faces due to stringed edges with inconsistent extrusion.

Setting up information for layer truncation ...

Checking mesh with layer ...
Checking faces in error :
    non-orthogonality > 65  degrees                        : 1
    faces with face pyramid volume < 1e-13                 : 0
    faces with face-decomposition tet quality < 1e-15      : 4
    faces with concavity > 80  degrees                     : 0
    faces with skewness > 4   (internal) or 20  (boundary) : 0
    faces with interpolation weights (0..1)  < 0.02        : 0
    faces with volume ratio of neighbour cells < 0.01      : 0
    faces with face twist < 0.02                           : 0
    faces on cells with determinant < 0.001                : 0
Detected 5 illegal faces (concave, zero area or negative cell pyramid volume)
Extruding 137878 out of 182997 faces (75.3444%). Removed extrusion at 4 faces.
Added 137885 out of 182997 cells (75.3482%).


Layer addition iteration 20
--------------------------

Determining displacement for added points according to pointNormal ...
Detected 0 points with point normal pointing through faces.
Reset displacement at 0 points to average of surrounding points.

displacementMedialAxis : Smoothing using Medial Axis ...
displacementMedialAxis : Reducing layer thickness at 500 nodes where thickness to medial axis distance is large 
displacementMedialAxis : Removing isolated regions ...
displacementMedialAxis : Number of isolated points extrusion stopped : 2
displacementMedialAxis : Smoothing field ...
    Iteration 0   residual 4.70385e-05
displacementMedialAxis : Moving mesh ...
displacementMedialAxis : Iteration 0
Moving mesh using displacement scaling : min:1  max:1
Checking faces in error :
    non-orthogonality > 65  degrees                        : 0
    faces with face pyramid volume < 1e-13                 : 0
    faces with face-decomposition tet quality < 1e-15      : 23
    faces with concavity > 80  degrees                     : 0
    faces with skewness > 4   (internal) or 20  (boundary) : 0
    faces with interpolation weights (0..1)  < 0.02        : 0
    faces with volume ratio of neighbour cells < 0.01      : 0
    faces with face twist < 0.02                           : 1
    faces on cells with determinant < 0.001                : 0
displacementMedialAxis : Iteration 1
Moving mesh using displacement scaling : min:0.75  max:1
Checking faces in error :
    non-orthogonality > 65  degrees                        : 0
    faces with face pyramid volume < 1e-13                 : 0
    faces with face-decomposition tet quality < 1e-15      : 6
    faces with concavity > 80  degrees                     : 0
    faces with skewness > 4   (internal) or 20  (boundary) : 0
    faces with interpolation weights (0..1)  < 0.02        : 0
    faces with volume ratio of neighbour cells < 0.01      : 0
    faces with face twist < 0.02                           : 1
    faces on cells with determinant < 0.001                : 0
displacementMedialAxis : Iteration 2
Moving mesh using displacement scaling : min:0.5625  max:1
Checking faces in error :
    non-orthogonality > 65  degrees                        : 0
    faces with face pyramid volume < 1e-13                 : 0
    faces with face-decomposition tet quality < 1e-15      : 2
    faces with concavity > 80  degrees                     : 0
    faces with skewness > 4   (internal) or 20  (boundary) : 0
    faces with interpolation weights (0..1)  < 0.02        : 0
    faces with volume ratio of neighbour cells < 0.01      : 0
    faces with face twist < 0.02                           : 1
    faces on cells with determinant < 0.001                : 0
displacementMedialAxis : Iteration 3
displacementMedialAxis : Displacement scaling for error reduction set to 0.
Moving mesh using displacement scaling : min:0.421875  max:1
Checking faces in error :
    non-orthogonality > 65  degrees                        : 0
    faces with face pyramid volume < 1e-13                 : 0
    faces with face-decomposition tet quality < 1e-15      : 1
    faces with concavity > 80  degrees                     : 0
    faces with skewness > 4   (internal) or 20  (boundary) : 0
    faces with interpolation weights (0..1)  < 0.02        : 0
    faces with volume ratio of neighbour cells < 0.01      : 0
    faces with face twist < 0.02                           : 1
    faces on cells with determinant < 0.001                : 0
displacementMedialAxis : Iteration 4
Moving mesh using displacement scaling : min:0  max:1
Checking faces in error :
    non-orthogonality > 65  degrees                        : 0
    faces with face pyramid volume < 1e-13                 : 0
    faces with face-decomposition tet quality < 1e-15      : 0
    faces with concavity > 80  degrees                     : 0
    faces with skewness > 4   (internal) or 20  (boundary) : 0
    faces with interpolation weights (0..1)  < 0.02        : 0
    faces with volume ratio of neighbour cells < 0.01      : 0
    faces with face twist < 0.02                           : 0
    faces on cells with determinant < 0.001                : 0
displacementMedialAxis : Successfully moved mesh
displacementMedialAxis : Finished moving mesh ...
truncateDisplacement : Unextruded 0 faces due to non-consecutive vertices being extruded.
truncateDisplacement : Unextruded 0 faces due to stringed edges with inconsistent extrusion.

Setting up information for layer truncation ...

Checking mesh with layer ...
Checking faces in error :
    non-orthogonality > 65  degrees                        : 0
    faces with face pyramid volume < 1e-13                 : 0
    faces with face-decomposition tet quality < 1e-15      : 0
    faces with concavity > 80  degrees                     : 0
    faces with skewness > 4   (internal) or 20  (boundary) : 0
    faces with interpolation weights (0..1)  < 0.02        : 0
    faces with volume ratio of neighbour cells < 0.01      : 0
    faces with face twist < 0.02                           : 0
    faces on cells with determinant < 0.001                : 0
Detected 0 illegal faces (concave, zero area or negative cell pyramid volume)
Extruding 137877 out of 182997 faces (75.3439%). Removed extrusion at 0 faces.
Added 137877 out of 182997 cells (75.3439%).
Edge intersection testing:
    Number of edges             : 5891912
    Number of edges to retest   : 0
    Number of intersected edges : 287058

Doing final balancing
---------------------

Writing 137877 added cells to cellSet addedCells
Writing 0 faces inside added layer to faceSet layerFaces

Writing fields with layer information:
    nSurfaceLayers    : actual number of layers
    thickness         : overall layer thickness
    thicknessFraction : overall layer thickness (fraction of desired thickness)


patch                                            faces    layers   overall thickness
                                                                   [m]       [%]
-----                                            -----    ------   ---       ---
lowerWall                                        15842    0.994    0.0145    96.4    
motorBike_frt-fairing:001%1                      21829    0.649    0.00106   45.4    
motorBike_windshield:002%2                       179      0.95     0.00195   83.1    
motorBike_rr-wh-rim:005%5                        578      0.827    0.000961  41.1    
motorBike_rr-wh-rim:010%10                       1377     0.178    0.000267  11.4    
motorBike_fr-wh-rim:011%11                       1787     0.537    0.000582  24.9    
motorBike_fr-wh-brake-disk:012%12                255      0.996    0.00101   43.3    
motorBike_frame:016-shadow%13                    425      0.539    0.000471  20.2    
motorBike_rear-susp:014%14                       3657     0.783    0.00109   46.8    
motorBike_rear-susp:014-shadow%15                2107     0.775    0.00112   47.9    
motorBike_frame:016%16                           245      0.514    0.000453  19.6    
motorBike_rr-wh-rim:005-shadow%17                309      0.822    0.000949  40.5    
motorBike_rr-wh-chain-hub:022%22                 460      0.452    0.000307  13.3    
motorBike_rearseat%24                            1370     0.882    0.00175   68.5    
motorBike_frt-fairing%25                         2205     0.875    0.00146   61.5    
motorBike_windshield%26                          1500     0.195    0.000213  9.07    
motorBike_headlights%27                          590      0.978    0.00214   91.2    
motorBike_driversseat%28                         1597     0.778    0.00121   51.7    
motorBike_rear-body%29                           7400     0.885    0.00161   66.4    
motorBike_fuel-tank%30                           3221     0.914    0.00189   77.4    
motorBike_exhaust%31                             8459     0.709    0.0013    52.2    
motorBike_rr-wh-rim%32                           4350     0.872    0.00145   57.8    
motorBike_fr-mud-guard%33                        3085     0.426    0.000458  19.6    
motorBike_fr-wh-rim%34                           2205     0.92     0.00158   67.5    
motorBike_fr-wh-brake-disk%35                    1714     0.753    0.000747  31.9    
motorBike_fr-brake-caliper%36                    572      0.327    0.00023   9.93    
motorBike_fr-wh-tyre%37                          5046     0.728    0.00134   57.2    
motorBike_hbars%38                               2042     0.219    0.000217  9.29    
motorBike_fr-forks%39                            4367     0.727    0.00133   56.9    
motorBike_chain%40                               1783     0.107    7.49e-05  3.19    
motorBike_rr-wh-tyre%41                          4573     0.799    0.00173   59.3    
motorBike_square-dial%42                         20       1        0.00192   81.9    
motorBike_round-dial%43                          45       0.978    0.00102   43.4    
motorBike_dial-holder%44                         343      0.726    0.000702  30.2    
motorBike_rear-susp%45                           7100     0.78     0.000944  40.3    
motorBike_rear-brake-lights%46                   201      0.488    0.000419  18.2    
motorBike_rear-light-bracket%47                  635      0.814    0.00115   49      
motorBike_frame%48                               7654     0.8      0.00134   57.2    
motorBike_rear-mud-guard%49                      2520     0.74     0.00124   52.8    
motorBike_rear-susp-spring-damp%50               448      0.592    0.00056   24      
motorBike_fairing-inner-plate%51                 1557     0.8      0.00127   51      
motorBike_clutch-housing%52                      3783     0.966    0.00175   74.2    
motorBike_radiator%53                            412      0.153    7.81e-05  3.33    
motorBike_water-pipe%54                          325      0        0         0       
motorBike_water-pump%55                          264      0.402    0.000339  14.7    
motorBike_engine%56                              8731     0.901    0.00153   64.2    
motorBike_rear-shock-link%57                     106      0        0         0       
motorBike_rear-brake-fluid-pot-bracket%58        152      0.625    0.000617  26.4    
motorBike_rear-brake-fluid-pot%59                203      0.601    0.000398  17.4    
motorBike_footpeg%60                             346      0.341    0.000169  7.27    
motorBike_rr-wh-chain-hub%61                     449      0.577    0.000524  22.6    
motorBike_rear-brake-caliper%62                  574      0.38     0.000316  13.6    
motorBike_rider-helmet%65                        1800     0.953    0.00232   79.1    
motorBike_rider-visor%66                         542      1        0.00231   96.8    
motorBike_rider-boots%67                         3734     0.96     0.00197   83.6    
motorBike_rider-gloves%68                        1206     0.46     0.000763  32.6    
motorBike_rider-body%69                          14295    0.933    0.00219   81      
motorBike_frame:0%70                             141      0.667    0.00104   44.3    
motorBike_frt-fairing:001-shadow%74              13670    0.614    0.00104   44.4    
motorBike_windshield-shadow%75                   981      0.171    0.000196  8.35    
motorBike_fr-mud-guard-shadow%81                 2040     0.408    0.000435  18.6    
motorBike_fr-wh-brake-disk-shadow%83             954      0.776    0.000758  32.5    
motorBike_rear-mud-guard-shadow%84               1669     0.715    0.00124   53.1    
motorBike_rear-susp-spring-damp-shadow%85        286      0.545    0.000564  24.1    
motorBike_radiator-shadow%86                     248      0.161    8.42e-05  3.59    
motorBike_rear-shock-link-shadow%87              60       0        0         0       
motorBike_rear-brake-fluid-pot-bracket-shadow%88 106      0.594    0.000517  22.1    
motorBike_rr-wh-chain-hub-shadow%89              268      0.597    0.000539  23.2    

Layer mesh : cells:1897864  faces:5891912  points:2118376
Cells per refinement level:
    0	9547
    1	4920
    2	16076
    3	48272
    4	991493
    5	127294
    6	700262
Writing mesh to time constant
Wrote mesh in = 40.99 s.
Layers added in = 40.99 s.
Checking final mesh ...
Checking faces in error :
    non-orthogonality > 65  degrees                        : 0
    faces with face pyramid volume < 1e-13                 : 0
    faces with face-decomposition tet quality < 1e-15      : 0
    faces with concavity > 80  degrees                     : 0
    faces with skewness > 4   (internal) or 20  (boundary) : 0
    faces with interpolation weights (0..1)  < 0.02        : 0
    faces with volume ratio of neighbour cells < 0.01      : 0
    faces with face twist < 0.02                           : 0
    faces on cells with determinant < 0.001                : 0
Finished meshing without any errors
Finished meshing in = 127.28 s.
End

Finalising parallel run
