/*---------------------------------------------------------------------------*\
  =========                 |
  \\      /  F ield         | OpenFOAM: The Open Source CFD Toolbox
   \\    /   O peration     | Website:  https://openfoam.org
    \\  /    A nd           | Version:  7
     \\/     M anipulation  |
\*---------------------------------------------------------------------------*/
Build  : 7
Exec   : decomposePar
Date   : Sep 11 2020
Time   : 10:27:27
Host   : "openhpc-compute-6"
PID    : 9344
I/O    : uncollated
Case   : /alaska/steveb/hpc-tests/stage/alaska/ib-gcc9-openmpi4-ucx/openfoam/Openfoam_Mbike_8
nProcs : 1
sigFpe : Enabling floating point exception trapping (FOAM_SIGFPE).
fileModificationChecking : Monitoring run-time modified files using timeStampMaster (fileModificationSkew 10)
allowSystemOperations : Allowing user-supplied system call operations

// * * * * * * * * * * * * * * * * * * * * * * * * * * * * * * * * * * * * * //
Create time



Decomposing mesh region0

Create mesh

Calculating distribution of cells
 Foam::decompositionMethod::New 
{
    numberOfSubdomains 256;
    method          scotch;
    simpleCoeffs
    {
        n               ( 4 1 1 );
        delta           0.001;
    }
    hierarchicalCoeffs
    {
        n               ( 3 2 1 );
        delta           0.001;
        order           xyz;
    }
    manualCoeffs
    {
        dataFile        "cellDecomposition";
    }
}

Selecting decompositionMethod scotch

Finished decomposition in 0.09 s

Calculating original mesh data

Distributing cells to processors

Distributing faces to processors

Distributing points to processors

Constructing processor meshes

Processor 0
    Number of cells = 40
    Number of faces shared with processor 1 = 20
    Number of faces shared with processor 3 = 15
    Number of faces shared with processor 8 = 4
    Number of faces shared with processor 9 = 4
    Number of faces shared with processor 144 = 7
    Number of processor patches = 5
    Number of processor faces = 50
    Number of boundary faces = 30

Processor 1
    Number of cells = 40
    Number of faces shared with processor 0 = 20
    Number of faces shared with processor 3 = 16
    Number of faces shared with processor 6 = 10
    Number of faces shared with processor 7 = 9
    Number of faces shared with processor 8 = 4
    Number of faces shared with processor 9 = 3
    Number of faces shared with processor 144 = 7
    Number of faces shared with processor 146 = 1
    Number of processor patches = 8
    Number of processor faces = 70
    Number of boundary faces = 10

Processor 2
    Number of cells = 40
    Number of faces shared with processor 3 = 20
    Number of faces shared with processor 4 = 10
    Number of faces shared with processor 10 = 5
    Number of faces shared with processor 11 = 3
    Number of faces shared with processor 147 = 8
    Number of faces shared with processor 64 = 20
    Number of processor patches = 6
    Number of processor faces = 66
    Number of boundary faces = 10

Processor 3
    Number of cells = 40
    Number of faces shared with processor 0 = 15
    Number of faces shared with processor 1 = 16
    Number of faces shared with processor 2 = 20
    Number of faces shared with processor 5 = 10
    Number of faces shared with processor 6 = 1
    Number of faces shared with processor 9 = 2
    Number of faces shared with processor 10 = 3
    Number of faces shared with processor 11 = 4
    Number of faces shared with processor 144 = 1
    Number of faces shared with processor 146 = 8
    Number of processor patches = 10
    Number of processor faces = 80
    Number of boundary faces = 10

Processor 4
    Number of cells = 40
    Number of faces shared with processor 2 = 10
    Number of faces shared with processor 5 = 20
    Number of faces shared with processor 14 = 8
    Number of faces shared with processor 23 = 10
    Number of faces shared with processor 151 = 8
    Number of faces shared with processor 70 = 12
    Number of faces shared with processor 71 = 8
    Number of processor patches = 7
    Number of processor faces = 76
    Number of boundary faces = 0

Processor 5
    Number of cells = 40
    Number of faces shared with processor 3 = 10
    Number of faces shared with processor 4 = 20
    Number of faces shared with processor 6 = 14
    Number of faces shared with processor 7 = 17
    Number of faces shared with processor 12 = 1
    Number of faces shared with processor 15 = 6
    Number of faces shared with processor 22 = 9
    Number of faces shared with processor 150 = 7
    Number of processor patches = 8
    Number of processor faces = 84
    Number of boundary faces = 0

Processor 6
    Number of cells = 40
    Number of faces shared with processor 1 = 10
    Number of faces shared with processor 3 = 1
    Number of faces shared with processor 5 = 14
    Number of faces shared with processor 7 = 19
    Number of faces shared with processor 12 = 8
    Number of faces shared with processor 13 = 8
    Number of faces shared with processor 15 = 1
    Number of faces shared with processor 20 = 10
    Number of faces shared with processor 22 = 1
    Number of processor patches = 9
    Number of processor faces = 72
    Number of boundary faces = 12

Processor 7
    Number of cells = 40
    Number of faces shared with processor 1 = 9
    Number of faces shared with processor 5 = 17
    Number of faces shared with processor 6 = 19
    Number of faces shared with processor 20 = 1
    Number of faces shared with processor 148 = 8
    Number of faces shared with processor 21 = 9
    Number of faces shared with processor 149 = 7
    Number of faces shared with processor 150 = 2
    Number of processor patches = 8
    Number of processor faces = 72
    Number of boundary faces = 8

Processor 8
    Number of cells = 40
    Number of faces shared with processor 0 = 4
    Number of faces shared with processor 1 = 4
    Number of faces shared with processor 9 = 20
    Number of faces shared with processor 12 = 10
    Number of faces shared with processor 34 = 4
    Number of faces shared with processor 35 = 4
    Number of processor patches = 6
    Number of processor faces = 46
    Number of boundary faces = 30

Processor 9
    Number of cells = 40
    Number of faces shared with processor 0 = 4
    Number of faces shared with processor 1 = 3
    Number of faces shared with processor 3 = 2
    Number of faces shared with processor 8 = 20
    Number of faces shared with processor 10 = 17
    Number of faces shared with processor 11 = 14
    Number of faces shared with processor 12 = 9
    Number of faces shared with processor 34 = 4
    Number of faces shared with processor 35 = 3
    Number of processor patches = 9
    Number of processor faces = 76
    Number of boundary faces = 10

Processor 10
    Number of cells = 40
    Number of faces shared with processor 2 = 5
    Number of faces shared with processor 3 = 3
    Number of faces shared with processor 9 = 17
    Number of faces shared with processor 11 = 20
    Number of faces shared with processor 32 = 4
    Number of faces shared with processor 33 = 3
    Number of faces shared with processor 34 = 1
    Number of faces shared with processor 76 = 10
    Number of faces shared with processor 77 = 1
    Number of processor patches = 9
    Number of processor faces = 64
    Number of boundary faces = 20

Processor 11
    Number of cells = 40
    Number of faces shared with processor 2 = 3
    Number of faces shared with processor 3 = 4
    Number of faces shared with processor 9 = 14
    Number of faces shared with processor 10 = 20
    Number of faces shared with processor 12 = 1
    Number of faces shared with processor 14 = 10
    Number of faces shared with processor 15 = 10
    Number of faces shared with processor 32 = 4
    Number of faces shared with processor 33 = 4
    Number of faces shared with processor 35 = 1
    Number of faces shared with processor 77 = 9
    Number of processor patches = 11
    Number of processor faces = 80
    Number of boundary faces = 0

Processor 12
    Number of cells = 40
    Number of faces shared with processor 5 = 1
    Number of faces shared with processor 6 = 8
    Number of faces shared with processor 8 = 10
    Number of faces shared with processor 9 = 9
    Number of faces shared with processor 11 = 1
    Number of faces shared with processor 13 = 20
    Number of faces shared with processor 15 = 16
    Number of faces shared with processor 39 = 7
    Number of processor patches = 8
    Number of processor faces = 72
    Number of boundary faces = 10

Processor 13
    Number of cells = 40
    Number of faces shared with processor 6 = 8
    Number of faces shared with processor 12 = 20
    Number of faces shared with processor 15 = 15
    Number of faces shared with processor 26 = 10
    Number of faces shared with processor 27 = 9
    Number of faces shared with processor 39 = 8
    Number of processor patches = 6
    Number of processor faces = 70
    Number of boundary faces = 10

Processor 14
    Number of cells = 40
    Number of faces shared with processor 4 = 8
    Number of faces shared with processor 11 = 10
    Number of faces shared with processor 15 = 20
    Number of faces shared with processor 24 = 10
    Number of faces shared with processor 37 = 8
    Number of faces shared with processor 72 = 20
    Number of processor patches = 6
    Number of processor faces = 76
    Number of boundary faces = 0

Processor 15
    Number of cells = 40
    Number of faces shared with processor 5 = 6
    Number of faces shared with processor 6 = 1
    Number of faces shared with processor 11 = 10
    Number of faces shared with processor 12 = 16
    Number of faces shared with processor 13 = 15
    Number of faces shared with processor 14 = 20
    Number of faces shared with processor 25 = 10
    Number of faces shared with processor 26 = 1
    Number of faces shared with processor 36 = 7
    Number of faces shared with processor 39 = 2
    Number of processor patches = 10
    Number of processor faces = 88
    Number of boundary faces = 0

Processor 16
    Number of cells = 40
    Number of faces shared with processor 17 = 20
    Number of faces shared with processor 19 = 31
    Number of faces shared with processor 20 = 3
    Number of faces shared with processor 21 = 6
    Number of faces shared with processor 22 = 1
    Number of faces shared with processor 28 = 3
    Number of faces shared with processor 29 = 4
    Number of faces shared with processor 188 = 3
    Number of faces shared with processor 189 = 4
    Number of faces shared with processor 190 = 1
    Number of faces shared with processor 191 = 1
    Number of processor patches = 11
    Number of processor faces = 77
    Number of boundary faces = 9

Processor 17
    Number of cells = 40
    Number of faces shared with processor 16 = 20
    Number of faces shared with processor 20 = 6
    Number of faces shared with processor 21 = 4
    Number of faces shared with processor 28 = 4
    Number of faces shared with processor 29 = 4
    Number of faces shared with processor 188 = 4
    Number of faces shared with processor 189 = 4
    Number of processor patches = 7
    Number of processor faces = 46
    Number of boundary faces = 30

Processor 18
    Number of cells = 40
    Number of faces shared with processor 19 = 20
    Number of faces shared with processor 23 = 10
    Number of faces shared with processor 31 = 8
    Number of faces shared with processor 190 = 4
    Number of faces shared with processor 191 = 4
    Number of faces shared with processor 80 = 10
    Number of faces shared with processor 81 = 10
    Number of processor patches = 7
    Number of processor faces = 66
    Number of boundary faces = 10

Processor 19
    Number of cells = 40
    Number of faces shared with processor 16 = 31
    Number of faces shared with processor 18 = 20
    Number of faces shared with processor 22 = 10
    Number of faces shared with processor 28 = 1
    Number of faces shared with processor 29 = 1
    Number of faces shared with processor 30 = 7
    Number of faces shared with processor 190 = 3
    Number of faces shared with processor 191 = 4
    Number of processor patches = 8
    Number of processor faces = 77
    Number of boundary faces = 11

Processor 20
    Number of cells = 40
    Number of faces shared with processor 6 = 10
    Number of faces shared with processor 7 = 1
    Number of faces shared with processor 16 = 3
    Number of faces shared with processor 17 = 6
    Number of faces shared with processor 21 = 20
    Number of faces shared with processor 22 = 13
    Number of faces shared with processor 27 = 15
    Number of processor patches = 7
    Number of processor faces = 68
    Number of boundary faces = 12

Processor 21
    Number of cells = 40
    Number of faces shared with processor 7 = 9
    Number of faces shared with processor 16 = 6
    Number of faces shared with processor 17 = 4
    Number of faces shared with processor 20 = 20
    Number of faces shared with processor 22 = 18
    Number of faces shared with processor 184 = 7
    Number of faces shared with processor 185 = 8
    Number of faces shared with processor 186 = 1
    Number of faces shared with processor 187 = 1
    Number of processor patches = 9
    Number of processor faces = 74
    Number of boundary faces = 8

Processor 22
    Number of cells = 40
    Number of faces shared with processor 5 = 9
    Number of faces shared with processor 6 = 1
    Number of faces shared with processor 16 = 1
    Number of faces shared with processor 19 = 10
    Number of faces shared with processor 20 = 13
    Number of faces shared with processor 21 = 18
    Number of faces shared with processor 23 = 20
    Number of faces shared with processor 25 = 7
    Number of faces shared with processor 27 = 2
    Number of faces shared with processor 186 = 4
    Number of faces shared with processor 187 = 3
    Number of processor patches = 11
    Number of processor faces = 88
    Number of boundary faces = 0

Processor 23
    Number of cells = 40
    Number of faces shared with processor 4 = 10
    Number of faces shared with processor 18 = 10
    Number of faces shared with processor 22 = 20
    Number of faces shared with processor 24 = 8
    Number of faces shared with processor 186 = 3
    Number of faces shared with processor 187 = 5
    Number of faces shared with processor 82 = 10
    Number of faces shared with processor 83 = 10
    Number of processor patches = 8
    Number of processor faces = 76
    Number of boundary faces = 0

Processor 24
    Number of cells = 40
    Number of faces shared with processor 14 = 10
    Number of faces shared with processor 23 = 8
    Number of faces shared with processor 25 = 20
    Number of faces shared with processor 31 = 10
    Number of faces shared with processor 53 = 8
    Number of faces shared with processor 88 = 10
    Number of faces shared with processor 89 = 10
    Number of processor patches = 7
    Number of processor faces = 76
    Number of boundary faces = 0

Processor 25
    Number of cells = 40
    Number of faces shared with processor 15 = 10
    Number of faces shared with processor 22 = 7
    Number of faces shared with processor 24 = 20
    Number of faces shared with processor 26 = 14
    Number of faces shared with processor 27 = 17
    Number of faces shared with processor 30 = 9
    Number of faces shared with processor 52 = 6
    Number of faces shared with processor 54 = 1
    Number of processor patches = 8
    Number of processor faces = 84
    Number of boundary faces = 0

Processor 26
    Number of cells = 40
    Number of faces shared with processor 13 = 10
    Number of faces shared with processor 15 = 1
    Number of faces shared with processor 25 = 14
    Number of faces shared with processor 27 = 19
    Number of faces shared with processor 29 = 10
    Number of faces shared with processor 30 = 1
    Number of faces shared with processor 52 = 1
    Number of faces shared with processor 54 = 8
    Number of faces shared with processor 55 = 8
    Number of processor patches = 9
    Number of processor faces = 72
    Number of boundary faces = 12

Processor 27
    Number of cells = 40
    Number of faces shared with processor 13 = 9
    Number of faces shared with processor 20 = 15
    Number of faces shared with processor 22 = 2
    Number of faces shared with processor 25 = 17
    Number of faces shared with processor 26 = 19
    Number of faces shared with processor 29 = 10
    Number of processor patches = 6
    Number of processor faces = 72
    Number of boundary faces = 8

Processor 28
    Number of cells = 40
    Number of faces shared with processor 16 = 3
    Number of faces shared with processor 17 = 4
    Number of faces shared with processor 19 = 1
    Number of faces shared with processor 29 = 20
    Number of faces shared with processor 30 = 15
    Number of faces shared with processor 48 = 4
    Number of faces shared with processor 49 = 4
    Number of processor patches = 7
    Number of processor faces = 51
    Number of boundary faces = 29

Processor 29
    Number of cells = 40
    Number of faces shared with processor 16 = 4
    Number of faces shared with processor 17 = 4
    Number of faces shared with processor 19 = 1
    Number of faces shared with processor 26 = 10
    Number of faces shared with processor 27 = 10
    Number of faces shared with processor 28 = 20
    Number of faces shared with processor 30 = 16
    Number of faces shared with processor 48 = 3
    Number of faces shared with processor 49 = 4
    Number of processor patches = 9
    Number of processor faces = 72
    Number of boundary faces = 10

Processor 30
    Number of cells = 40
    Number of faces shared with processor 19 = 7
    Number of faces shared with processor 25 = 9
    Number of faces shared with processor 26 = 1
    Number of faces shared with processor 28 = 15
    Number of faces shared with processor 29 = 16
    Number of faces shared with processor 31 = 20
    Number of faces shared with processor 48 = 2
    Number of faces shared with processor 50 = 7
    Number of processor patches = 8
    Number of processor faces = 77
    Number of boundary faces = 11

Processor 31
    Number of cells = 40
    Number of faces shared with processor 18 = 8
    Number of faces shared with processor 24 = 10
    Number of faces shared with processor 30 = 20
    Number of faces shared with processor 51 = 8
    Number of faces shared with processor 94 = 10
    Number of faces shared with processor 95 = 10
    Number of processor patches = 6
    Number of processor faces = 66
    Number of boundary faces = 10

Processor 32
    Number of cells = 40
    Number of faces shared with processor 10 = 4
    Number of faces shared with processor 11 = 4
    Number of faces shared with processor 33 = 20
    Number of faces shared with processor 37 = 10
    Number of faces shared with processor 42 = 4
    Number of faces shared with processor 43 = 4
    Number of faces shared with processor 114 = 10
    Number of faces shared with processor 115 = 10
    Number of processor patches = 8
    Number of processor faces = 66
    Number of boundary faces = 10

Processor 33
    Number of cells = 40
    Number of faces shared with processor 10 = 3
    Number of faces shared with processor 11 = 4
    Number of faces shared with processor 32 = 20
    Number of faces shared with processor 34 = 16
    Number of faces shared with processor 35 = 15
    Number of faces shared with processor 36 = 9
    Number of faces shared with processor 42 = 4
    Number of faces shared with processor 43 = 3
    Number of processor patches = 8
    Number of processor faces = 74
    Number of boundary faces = 10

Processor 34
    Number of cells = 40
    Number of faces shared with processor 8 = 4
    Number of faces shared with processor 9 = 4
    Number of faces shared with processor 10 = 1
    Number of faces shared with processor 33 = 16
    Number of faces shared with processor 35 = 19
    Number of faces shared with processor 46 = 8
    Number of processor patches = 6
    Number of processor faces = 52
    Number of boundary faces = 30

Processor 35
    Number of cells = 40
    Number of faces shared with processor 8 = 4
    Number of faces shared with processor 9 = 3
    Number of faces shared with processor 11 = 1
    Number of faces shared with processor 33 = 15
    Number of faces shared with processor 34 = 19
    Number of faces shared with processor 36 = 1
    Number of faces shared with processor 38 = 11
    Number of faces shared with processor 39 = 9
    Number of faces shared with processor 43 = 1
    Number of faces shared with processor 46 = 8
    Number of processor patches = 10
    Number of processor faces = 72
    Number of boundary faces = 10

Processor 36
    Number of cells = 40
    Number of faces shared with processor 15 = 7
    Number of faces shared with processor 33 = 9
    Number of faces shared with processor 35 = 1
    Number of faces shared with processor 37 = 20
    Number of faces shared with processor 38 = 14
    Number of faces shared with processor 39 = 17
    Number of faces shared with processor 40 = 3
    Number of faces shared with processor 41 = 4
    Number of faces shared with processor 52 = 9
    Number of processor patches = 9
    Number of processor faces = 84
    Number of boundary faces = 0

Processor 37
    Number of cells = 40
    Number of faces shared with processor 14 = 8
    Number of faces shared with processor 32 = 10
    Number of faces shared with processor 36 = 20
    Number of faces shared with processor 40 = 4
    Number of faces shared with processor 41 = 4
    Number of faces shared with processor 53 = 10
    Number of faces shared with processor 116 = 20
    Number of processor patches = 7
    Number of processor faces = 76
    Number of boundary faces = 0

Processor 38
    Number of cells = 40
    Number of faces shared with processor 35 = 11
    Number of faces shared with processor 36 = 14
    Number of faces shared with processor 39 = 19
    Number of faces shared with processor 40 = 1
    Number of faces shared with processor 44 = 8
    Number of faces shared with processor 45 = 8
    Number of faces shared with processor 52 = 1
    Number of faces shared with processor 54 = 10
    Number of processor patches = 8
    Number of processor faces = 72
    Number of boundary faces = 12

Processor 39
    Number of cells = 40
    Number of faces shared with processor 12 = 7
    Number of faces shared with processor 13 = 8
    Number of faces shared with processor 15 = 2
    Number of faces shared with processor 35 = 9
    Number of faces shared with processor 36 = 17
    Number of faces shared with processor 38 = 19
    Number of faces shared with processor 54 = 10
    Number of processor patches = 7
    Number of processor faces = 72
    Number of boundary faces = 8

Processor 40
    Number of cells = 40
    Number of faces shared with processor 36 = 3
    Number of faces shared with processor 37 = 4
    Number of faces shared with processor 38 = 1
    Number of faces shared with processor 41 = 20
    Number of faces shared with processor 44 = 10
    Number of faces shared with processor 60 = 10
    Number of faces shared with processor 61 = 10
    Number of faces shared with processor 122 = 6
    Number of faces shared with processor 123 = 4
    Number of processor patches = 9
    Number of processor faces = 68
    Number of boundary faces = 8

Processor 41
    Number of cells = 40
    Number of faces shared with processor 36 = 4
    Number of faces shared with processor 37 = 4
    Number of faces shared with processor 40 = 20
    Number of faces shared with processor 43 = 28
    Number of faces shared with processor 45 = 10
    Number of faces shared with processor 122 = 6
    Number of faces shared with processor 123 = 4
    Number of processor patches = 7
    Number of processor faces = 76
    Number of boundary faces = 8

Processor 42
    Number of cells = 40
    Number of faces shared with processor 32 = 4
    Number of faces shared with processor 33 = 4
    Number of faces shared with processor 43 = 20
    Number of faces shared with processor 46 = 6
    Number of faces shared with processor 47 = 4
    Number of faces shared with processor 125 = 10
    Number of processor patches = 6
    Number of processor faces = 48
    Number of boundary faces = 28

Processor 43
    Number of cells = 40
    Number of faces shared with processor 32 = 4
    Number of faces shared with processor 33 = 3
    Number of faces shared with processor 35 = 1
    Number of faces shared with processor 41 = 28
    Number of faces shared with processor 42 = 20
    Number of faces shared with processor 46 = 6
    Number of faces shared with processor 47 = 4
    Number of faces shared with processor 125 = 10
    Number of processor patches = 8
    Number of processor faces = 76
    Number of boundary faces = 8

Processor 44
    Number of cells = 40
    Number of faces shared with processor 38 = 8
    Number of faces shared with processor 40 = 10
    Number of faces shared with processor 45 = 20
    Number of faces shared with processor 62 = 11
    Number of faces shared with processor 63 = 9
    Number of processor patches = 5
    Number of processor faces = 58
    Number of boundary faces = 18

Processor 45
    Number of cells = 40
    Number of faces shared with processor 38 = 8
    Number of faces shared with processor 41 = 10
    Number of faces shared with processor 44 = 20
    Number of faces shared with processor 46 = 15
    Number of faces shared with processor 47 = 13
    Number of processor patches = 5
    Number of processor faces = 66
    Number of boundary faces = 18

Processor 46
    Number of cells = 40
    Number of faces shared with processor 34 = 8
    Number of faces shared with processor 35 = 8
    Number of faces shared with processor 42 = 6
    Number of faces shared with processor 43 = 6
    Number of faces shared with processor 45 = 15
    Number of faces shared with processor 47 = 20
    Number of processor patches = 6
    Number of processor faces = 63
    Number of boundary faces = 17

Processor 47
    Number of cells = 40
    Number of faces shared with processor 42 = 4
    Number of faces shared with processor 43 = 4
    Number of faces shared with processor 45 = 13
    Number of faces shared with processor 46 = 20
    Number of processor patches = 4
    Number of processor faces = 41
    Number of boundary faces = 39

Processor 48
    Number of cells = 40
    Number of faces shared with processor 28 = 4
    Number of faces shared with processor 29 = 3
    Number of faces shared with processor 30 = 2
    Number of faces shared with processor 49 = 20
    Number of faces shared with processor 50 = 31
    Number of faces shared with processor 55 = 10
    Number of faces shared with processor 58 = 4
    Number of faces shared with processor 59 = 3
    Number of processor patches = 8
    Number of processor faces = 77
    Number of boundary faces = 9

Processor 49
    Number of cells = 40
    Number of faces shared with processor 28 = 4
    Number of faces shared with processor 29 = 4
    Number of faces shared with processor 48 = 20
    Number of faces shared with processor 55 = 10
    Number of faces shared with processor 58 = 4
    Number of faces shared with processor 59 = 4
    Number of processor patches = 6
    Number of processor faces = 46
    Number of boundary faces = 30

Processor 50
    Number of cells = 40
    Number of faces shared with processor 30 = 7
    Number of faces shared with processor 48 = 31
    Number of faces shared with processor 51 = 20
    Number of faces shared with processor 52 = 9
    Number of faces shared with processor 55 = 1
    Number of faces shared with processor 57 = 7
    Number of faces shared with processor 58 = 1
    Number of faces shared with processor 59 = 1
    Number of processor patches = 8
    Number of processor faces = 77
    Number of boundary faces = 11

Processor 51
    Number of cells = 40
    Number of faces shared with processor 31 = 8
    Number of faces shared with processor 50 = 20
    Number of faces shared with processor 53 = 10
    Number of faces shared with processor 56 = 8
    Number of faces shared with processor 100 = 20
    Number of processor patches = 5
    Number of processor faces = 66
    Number of boundary faces = 10

Processor 52
    Number of cells = 40
    Number of faces shared with processor 25 = 6
    Number of faces shared with processor 26 = 1
    Number of faces shared with processor 36 = 9
    Number of faces shared with processor 38 = 1
    Number of faces shared with processor 50 = 9
    Number of faces shared with processor 53 = 20
    Number of faces shared with processor 54 = 16
    Number of faces shared with processor 55 = 15
    Number of faces shared with processor 60 = 6
    Number of faces shared with processor 63 = 1
    Number of processor patches = 10
    Number of processor faces = 84
    Number of boundary faces = 0

Processor 53
    Number of cells = 40
    Number of faces shared with processor 24 = 8
    Number of faces shared with processor 37 = 10
    Number of faces shared with processor 51 = 10
    Number of faces shared with processor 52 = 20
    Number of faces shared with processor 61 = 8
    Number of faces shared with processor 96 = 20
    Number of processor patches = 6
    Number of processor faces = 76
    Number of boundary faces = 0

Processor 54
    Number of cells = 40
    Number of faces shared with processor 25 = 1
    Number of faces shared with processor 26 = 8
    Number of faces shared with processor 38 = 10
    Number of faces shared with processor 39 = 10
    Number of faces shared with processor 52 = 16
    Number of faces shared with processor 55 = 19
    Number of faces shared with processor 63 = 8
    Number of processor patches = 7
    Number of processor faces = 72
    Number of boundary faces = 10

Processor 55
    Number of cells = 40
    Number of faces shared with processor 26 = 8
    Number of faces shared with processor 48 = 10
    Number of faces shared with processor 49 = 10
    Number of faces shared with processor 50 = 1
    Number of faces shared with processor 52 = 15
    Number of faces shared with processor 54 = 19
    Number of faces shared with processor 60 = 1
    Number of faces shared with processor 63 = 8
    Number of processor patches = 8
    Number of processor faces = 72
    Number of boundary faces = 10

Processor 56
    Number of cells = 40
    Number of faces shared with processor 51 = 8
    Number of faces shared with processor 57 = 20
    Number of faces shared with processor 61 = 10
    Number of faces shared with processor 106 = 10
    Number of faces shared with processor 107 = 10
    Number of processor patches = 5
    Number of processor faces = 58
    Number of boundary faces = 18

Processor 57
    Number of cells = 40
    Number of faces shared with processor 50 = 7
    Number of faces shared with processor 56 = 20
    Number of faces shared with processor 58 = 16
    Number of faces shared with processor 59 = 15
    Number of faces shared with processor 60 = 9
    Number of faces shared with processor 62 = 1
    Number of processor patches = 6
    Number of processor faces = 68
    Number of boundary faces = 16

Processor 58
    Number of cells = 40
    Number of faces shared with processor 48 = 4
    Number of faces shared with processor 49 = 4
    Number of faces shared with processor 50 = 1
    Number of faces shared with processor 57 = 16
    Number of faces shared with processor 59 = 19
    Number of faces shared with processor 62 = 10
    Number of faces shared with processor 63 = 10
    Number of processor patches = 7
    Number of processor faces = 64
    Number of boundary faces = 18

Processor 59
    Number of cells = 40
    Number of faces shared with processor 48 = 3
    Number of faces shared with processor 49 = 4
    Number of faces shared with processor 50 = 1
    Number of faces shared with processor 57 = 15
    Number of faces shared with processor 58 = 19
    Number of processor patches = 5
    Number of processor faces = 42
    Number of boundary faces = 40

Processor 60
    Number of cells = 40
    Number of faces shared with processor 40 = 10
    Number of faces shared with processor 52 = 6
    Number of faces shared with processor 55 = 1
    Number of faces shared with processor 57 = 9
    Number of faces shared with processor 61 = 20
    Number of faces shared with processor 62 = 14
    Number of faces shared with processor 63 = 17
    Number of processor patches = 7
    Number of processor faces = 77
    Number of boundary faces = 7

Processor 61
    Number of cells = 40
    Number of faces shared with processor 40 = 10
    Number of faces shared with processor 53 = 8
    Number of faces shared with processor 56 = 10
    Number of faces shared with processor 60 = 20
    Number of faces shared with processor 104 = 10
    Number of faces shared with processor 105 = 10
    Number of processor patches = 6
    Number of processor faces = 68
    Number of boundary faces = 8

Processor 62
    Number of cells = 40
    Number of faces shared with processor 44 = 11
    Number of faces shared with processor 57 = 1
    Number of faces shared with processor 58 = 10
    Number of faces shared with processor 60 = 14
    Number of faces shared with processor 63 = 19
    Number of processor patches = 5
    Number of processor faces = 55
    Number of boundary faces = 29

Processor 63
    Number of cells = 40
    Number of faces shared with processor 44 = 9
    Number of faces shared with processor 52 = 1
    Number of faces shared with processor 54 = 8
    Number of faces shared with processor 55 = 8
    Number of faces shared with processor 58 = 10
    Number of faces shared with processor 60 = 17
    Number of faces shared with processor 62 = 19
    Number of processor patches = 7
    Number of processor faces = 72
    Number of boundary faces = 8

Processor 64
    Number of cells = 40
    Number of faces shared with processor 2 = 20
    Number of faces shared with processor 134 = 4
    Number of faces shared with processor 135 = 4
    Number of faces shared with processor 65 = 20
    Number of faces shared with processor 70 = 6
    Number of faces shared with processor 71 = 4
    Number of faces shared with processor 76 = 4
    Number of faces shared with processor 77 = 4
    Number of processor patches = 8
    Number of processor faces = 66
    Number of boundary faces = 10

Processor 65
    Number of cells = 40
    Number of faces shared with processor 133 = 1
    Number of faces shared with processor 134 = 4
    Number of faces shared with processor 135 = 4
    Number of faces shared with processor 64 = 20
    Number of faces shared with processor 66 = 18
    Number of faces shared with processor 67 = 13
    Number of faces shared with processor 70 = 4
    Number of faces shared with processor 71 = 5
    Number of faces shared with processor 76 = 4
    Number of faces shared with processor 77 = 3
    Number of processor patches = 10
    Number of processor faces = 76
    Number of boundary faces = 10

Processor 66
    Number of cells = 40
    Number of faces shared with processor 132 = 4
    Number of faces shared with processor 133 = 3
    Number of faces shared with processor 65 = 18
    Number of faces shared with processor 67 = 20
    Number of faces shared with processor 76 = 1
    Number of faces shared with processor 78 = 1
    Number of faces shared with processor 79 = 7
    Number of processor patches = 7
    Number of processor faces = 54
    Number of boundary faces = 30

Processor 67
    Number of cells = 40
    Number of faces shared with processor 132 = 4
    Number of faces shared with processor 133 = 3
    Number of faces shared with processor 135 = 1
    Number of faces shared with processor 65 = 13
    Number of faces shared with processor 66 = 20
    Number of faces shared with processor 68 = 10
    Number of faces shared with processor 69 = 10
    Number of faces shared with processor 70 = 1
    Number of faces shared with processor 77 = 1
    Number of faces shared with processor 78 = 6
    Number of faces shared with processor 79 = 1
    Number of processor patches = 11
    Number of processor faces = 70
    Number of boundary faces = 10

Processor 68
    Number of cells = 40
    Number of faces shared with processor 129 = 6
    Number of faces shared with processor 131 = 1
    Number of faces shared with processor 67 = 10
    Number of faces shared with processor 69 = 20
    Number of faces shared with processor 70 = 14
    Number of faces shared with processor 71 = 17
    Number of faces shared with processor 73 = 1
    Number of faces shared with processor 75 = 6
    Number of faces shared with processor 86 = 5
    Number of faces shared with processor 87 = 4
    Number of processor patches = 10
    Number of processor faces = 84
    Number of boundary faces = 0

Processor 69
    Number of cells = 40
    Number of faces shared with processor 128 = 8
    Number of faces shared with processor 67 = 10
    Number of faces shared with processor 68 = 20
    Number of faces shared with processor 75 = 8
    Number of faces shared with processor 86 = 5
    Number of faces shared with processor 87 = 5
    Number of processor patches = 6
    Number of processor faces = 56
    Number of boundary faces = 20

Processor 70
    Number of cells = 40
    Number of faces shared with processor 4 = 12
    Number of faces shared with processor 64 = 6
    Number of faces shared with processor 65 = 4
    Number of faces shared with processor 67 = 1
    Number of faces shared with processor 68 = 14
    Number of faces shared with processor 71 = 19
    Number of faces shared with processor 72 = 8
    Number of faces shared with processor 73 = 8
    Number of faces shared with processor 75 = 1
    Number of faces shared with processor 83 = 10
    Number of faces shared with processor 86 = 1
    Number of processor patches = 11
    Number of processor faces = 84
    Number of boundary faces = 0

Processor 71
    Number of cells = 40
    Number of faces shared with processor 129 = 1
    Number of faces shared with processor 130 = 8
    Number of faces shared with processor 131 = 8
    Number of faces shared with processor 4 = 8
    Number of faces shared with processor 64 = 4
    Number of faces shared with processor 65 = 5
    Number of faces shared with processor 68 = 17
    Number of faces shared with processor 70 = 19
    Number of faces shared with processor 83 = 10
    Number of processor patches = 9
    Number of processor faces = 80
    Number of boundary faces = 0

Processor 72
    Number of cells = 40
    Number of faces shared with processor 14 = 20
    Number of faces shared with processor 70 = 8
    Number of faces shared with processor 73 = 20
    Number of faces shared with processor 77 = 10
    Number of faces shared with processor 88 = 10
    Number of faces shared with processor 116 = 8
    Number of processor patches = 6
    Number of processor faces = 76
    Number of boundary faces = 0

Processor 73
    Number of cells = 40
    Number of faces shared with processor 68 = 1
    Number of faces shared with processor 70 = 8
    Number of faces shared with processor 72 = 20
    Number of faces shared with processor 74 = 17
    Number of faces shared with processor 75 = 14
    Number of faces shared with processor 77 = 9
    Number of faces shared with processor 78 = 1
    Number of faces shared with processor 88 = 9
    Number of faces shared with processor 117 = 7
    Number of processor patches = 9
    Number of processor faces = 86
    Number of boundary faces = 0

Processor 74
    Number of cells = 40
    Number of faces shared with processor 73 = 17
    Number of faces shared with processor 75 = 20
    Number of faces shared with processor 78 = 12
    Number of faces shared with processor 88 = 1
    Number of faces shared with processor 90 = 4
    Number of faces shared with processor 91 = 4
    Number of faces shared with processor 117 = 2
    Number of faces shared with processor 118 = 8
    Number of faces shared with processor 119 = 7
    Number of processor patches = 9
    Number of processor faces = 75
    Number of boundary faces = 9

Processor 75
    Number of cells = 40
    Number of faces shared with processor 68 = 6
    Number of faces shared with processor 69 = 8
    Number of faces shared with processor 70 = 1
    Number of faces shared with processor 73 = 14
    Number of faces shared with processor 74 = 20
    Number of faces shared with processor 78 = 8
    Number of faces shared with processor 90 = 6
    Number of faces shared with processor 91 = 6
    Number of processor patches = 8
    Number of processor faces = 69
    Number of boundary faces = 11

Processor 76
    Number of cells = 40
    Number of faces shared with processor 10 = 10
    Number of faces shared with processor 64 = 4
    Number of faces shared with processor 65 = 4
    Number of faces shared with processor 66 = 1
    Number of faces shared with processor 77 = 20
    Number of faces shared with processor 78 = 2
    Number of faces shared with processor 79 = 14
    Number of faces shared with processor 114 = 7
    Number of processor patches = 8
    Number of processor faces = 62
    Number of boundary faces = 20

Processor 77
    Number of cells = 40
    Number of faces shared with processor 10 = 1
    Number of faces shared with processor 11 = 9
    Number of faces shared with processor 64 = 4
    Number of faces shared with processor 65 = 3
    Number of faces shared with processor 67 = 1
    Number of faces shared with processor 72 = 10
    Number of faces shared with processor 73 = 9
    Number of faces shared with processor 76 = 20
    Number of faces shared with processor 78 = 12
    Number of faces shared with processor 79 = 3
    Number of faces shared with processor 114 = 1
    Number of faces shared with processor 115 = 7
    Number of processor patches = 12
    Number of processor faces = 80
    Number of boundary faces = 0

Processor 78
    Number of cells = 40
    Number of faces shared with processor 66 = 1
    Number of faces shared with processor 67 = 6
    Number of faces shared with processor 73 = 1
    Number of faces shared with processor 74 = 12
    Number of faces shared with processor 75 = 8
    Number of faces shared with processor 76 = 2
    Number of faces shared with processor 77 = 12
    Number of faces shared with processor 79 = 20
    Number of faces shared with processor 112 = 4
    Number of faces shared with processor 113 = 4
    Number of faces shared with processor 115 = 1
    Number of processor patches = 11
    Number of processor faces = 71
    Number of boundary faces = 9

Processor 79
    Number of cells = 40
    Number of faces shared with processor 66 = 7
    Number of faces shared with processor 67 = 1
    Number of faces shared with processor 76 = 14
    Number of faces shared with processor 77 = 3
    Number of faces shared with processor 78 = 20
    Number of faces shared with processor 112 = 3
    Number of faces shared with processor 113 = 4
    Number of faces shared with processor 114 = 1
    Number of processor patches = 8
    Number of processor faces = 53
    Number of boundary faces = 31

Processor 80
    Number of cells = 40
    Number of faces shared with processor 18 = 10
    Number of faces shared with processor 168 = 4
    Number of faces shared with processor 169 = 4
    Number of faces shared with processor 81 = 20
    Number of faces shared with processor 82 = 28
    Number of faces shared with processor 84 = 10
    Number of faces shared with processor 94 = 8
    Number of processor patches = 7
    Number of processor faces = 84
    Number of boundary faces = 0

Processor 81
    Number of cells = 40
    Number of faces shared with processor 18 = 10
    Number of faces shared with processor 168 = 4
    Number of faces shared with processor 169 = 3
    Number of faces shared with processor 170 = 1
    Number of faces shared with processor 80 = 20
    Number of faces shared with processor 84 = 10
    Number of faces shared with processor 95 = 8
    Number of processor patches = 7
    Number of processor faces = 56
    Number of boundary faces = 20

Processor 82
    Number of cells = 40
    Number of faces shared with processor 23 = 10
    Number of faces shared with processor 175 = 8
    Number of faces shared with processor 80 = 28
    Number of faces shared with processor 83 = 20
    Number of faces shared with processor 86 = 6
    Number of faces shared with processor 87 = 4
    Number of faces shared with processor 89 = 8
    Number of processor patches = 7
    Number of processor faces = 84
    Number of boundary faces = 0

Processor 83
    Number of cells = 40
    Number of faces shared with processor 23 = 10
    Number of faces shared with processor 174 = 8
    Number of faces shared with processor 70 = 10
    Number of faces shared with processor 71 = 10
    Number of faces shared with processor 82 = 20
    Number of faces shared with processor 86 = 6
    Number of faces shared with processor 87 = 4
    Number of faces shared with processor 88 = 8
    Number of processor patches = 8
    Number of processor faces = 76
    Number of boundary faces = 0

Processor 84
    Number of cells = 40
    Number of faces shared with processor 170 = 4
    Number of faces shared with processor 171 = 4
    Number of faces shared with processor 80 = 10
    Number of faces shared with processor 81 = 10
    Number of faces shared with processor 85 = 20
    Number of faces shared with processor 86 = 10
    Number of faces shared with processor 87 = 8
    Number of faces shared with processor 92 = 7
    Number of faces shared with processor 94 = 1
    Number of processor patches = 9
    Number of processor faces = 74
    Number of boundary faces = 10

Processor 85
    Number of cells = 40
    Number of faces shared with processor 170 = 3
    Number of faces shared with processor 171 = 5
    Number of faces shared with processor 84 = 20
    Number of faces shared with processor 86 = 3
    Number of faces shared with processor 87 = 7
    Number of faces shared with processor 93 = 8
    Number of processor patches = 6
    Number of processor faces = 46
    Number of boundary faces = 30

Processor 86
    Number of cells = 40
    Number of faces shared with processor 68 = 5
    Number of faces shared with processor 69 = 5
    Number of faces shared with processor 70 = 1
    Number of faces shared with processor 82 = 6
    Number of faces shared with processor 83 = 6
    Number of faces shared with processor 84 = 10
    Number of faces shared with processor 85 = 3
    Number of faces shared with processor 87 = 20
    Number of faces shared with processor 88 = 1
    Number of faces shared with processor 90 = 8
    Number of faces shared with processor 91 = 7
    Number of processor patches = 11
    Number of processor faces = 72
    Number of boundary faces = 8

Processor 87
    Number of cells = 40
    Number of faces shared with processor 172 = 8
    Number of faces shared with processor 173 = 7
    Number of faces shared with processor 175 = 1
    Number of faces shared with processor 68 = 4
    Number of faces shared with processor 69 = 5
    Number of faces shared with processor 82 = 4
    Number of faces shared with processor 83 = 4
    Number of faces shared with processor 84 = 8
    Number of faces shared with processor 85 = 7
    Number of faces shared with processor 86 = 20
    Number of processor patches = 10
    Number of processor faces = 68
    Number of boundary faces = 12

Processor 88
    Number of cells = 40
    Number of faces shared with processor 24 = 10
    Number of faces shared with processor 72 = 10
    Number of faces shared with processor 73 = 9
    Number of faces shared with processor 74 = 1
    Number of faces shared with processor 83 = 8
    Number of faces shared with processor 86 = 1
    Number of faces shared with processor 89 = 20
    Number of faces shared with processor 91 = 16
    Number of faces shared with processor 96 = 4
    Number of faces shared with processor 97 = 3
    Number of processor patches = 10
    Number of processor faces = 82
    Number of boundary faces = 0

Processor 89
    Number of cells = 40
    Number of faces shared with processor 24 = 10
    Number of faces shared with processor 82 = 8
    Number of faces shared with processor 88 = 20
    Number of faces shared with processor 91 = 15
    Number of faces shared with processor 94 = 19
    Number of faces shared with processor 96 = 4
    Number of faces shared with processor 97 = 4
    Number of processor patches = 7
    Number of processor faces = 80
    Number of boundary faces = 0

Processor 90
    Number of cells = 40
    Number of faces shared with processor 74 = 4
    Number of faces shared with processor 75 = 6
    Number of faces shared with processor 86 = 8
    Number of faces shared with processor 91 = 20
    Number of faces shared with processor 93 = 10
    Number of faces shared with processor 98 = 5
    Number of faces shared with processor 99 = 3
    Number of processor patches = 7
    Number of processor faces = 56
    Number of boundary faces = 20

Processor 91
    Number of cells = 40
    Number of faces shared with processor 74 = 4
    Number of faces shared with processor 75 = 6
    Number of faces shared with processor 86 = 7
    Number of faces shared with processor 88 = 16
    Number of faces shared with processor 89 = 15
    Number of faces shared with processor 90 = 20
    Number of faces shared with processor 92 = 10
    Number of faces shared with processor 94 = 1
    Number of faces shared with processor 97 = 2
    Number of faces shared with processor 98 = 3
    Number of faces shared with processor 99 = 4
    Number of processor patches = 11
    Number of processor faces = 88
    Number of boundary faces = 0

Processor 92
    Number of cells = 40
    Number of faces shared with processor 84 = 7
    Number of faces shared with processor 91 = 10
    Number of faces shared with processor 93 = 20
    Number of faces shared with processor 94 = 16
    Number of faces shared with processor 95 = 15
    Number of faces shared with processor 101 = 1
    Number of faces shared with processor 102 = 3
    Number of faces shared with processor 103 = 3
    Number of processor patches = 8
    Number of processor faces = 75
    Number of boundary faces = 9

Processor 93
    Number of cells = 40
    Number of faces shared with processor 85 = 8
    Number of faces shared with processor 90 = 10
    Number of faces shared with processor 92 = 20
    Number of faces shared with processor 102 = 4
    Number of faces shared with processor 103 = 4
    Number of processor patches = 5
    Number of processor faces = 46
    Number of boundary faces = 30

Processor 94
    Number of cells = 40
    Number of faces shared with processor 31 = 10
    Number of faces shared with processor 80 = 8
    Number of faces shared with processor 84 = 1
    Number of faces shared with processor 89 = 19
    Number of faces shared with processor 91 = 1
    Number of faces shared with processor 92 = 16
    Number of faces shared with processor 95 = 19
    Number of faces shared with processor 100 = 4
    Number of faces shared with processor 101 = 4
    Number of processor patches = 9
    Number of processor faces = 82
    Number of boundary faces = 0

Processor 95
    Number of cells = 40
    Number of faces shared with processor 31 = 10
    Number of faces shared with processor 81 = 8
    Number of faces shared with processor 92 = 15
    Number of faces shared with processor 94 = 19
    Number of faces shared with processor 100 = 4
    Number of faces shared with processor 101 = 4
    Number of faces shared with processor 102 = 1
    Number of processor patches = 7
    Number of processor faces = 61
    Number of boundary faces = 21

Processor 96
    Number of cells = 40
    Number of faces shared with processor 53 = 20
    Number of faces shared with processor 88 = 4
    Number of faces shared with processor 89 = 4
    Number of faces shared with processor 97 = 20
    Number of faces shared with processor 100 = 10
    Number of faces shared with processor 104 = 4
    Number of faces shared with processor 105 = 4
    Number of faces shared with processor 116 = 10
    Number of processor patches = 8
    Number of processor faces = 76
    Number of boundary faces = 0

Processor 97
    Number of cells = 40
    Number of faces shared with processor 88 = 3
    Number of faces shared with processor 89 = 4
    Number of faces shared with processor 91 = 2
    Number of faces shared with processor 96 = 20
    Number of faces shared with processor 98 = 17
    Number of faces shared with processor 99 = 14
    Number of faces shared with processor 101 = 9
    Number of faces shared with processor 104 = 4
    Number of faces shared with processor 105 = 3
    Number of faces shared with processor 117 = 9
    Number of faces shared with processor 119 = 1
    Number of processor patches = 11
    Number of processor faces = 86
    Number of boundary faces = 0

Processor 98
    Number of cells = 40
    Number of faces shared with processor 90 = 5
    Number of faces shared with processor 91 = 3
    Number of faces shared with processor 97 = 17
    Number of faces shared with processor 99 = 20
    Number of faces shared with processor 110 = 8
    Number of faces shared with processor 119 = 20
    Number of processor patches = 6
    Number of processor faces = 73
    Number of boundary faces = 11

Processor 99
    Number of cells = 40
    Number of faces shared with processor 90 = 3
    Number of faces shared with processor 91 = 4
    Number of faces shared with processor 97 = 14
    Number of faces shared with processor 98 = 20
    Number of faces shared with processor 101 = 1
    Number of faces shared with processor 103 = 20
    Number of faces shared with processor 105 = 1
    Number of faces shared with processor 111 = 8
    Number of processor patches = 8
    Number of processor faces = 71
    Number of boundary faces = 9

Processor 100
    Number of cells = 40
    Number of faces shared with processor 51 = 20
    Number of faces shared with processor 94 = 4
    Number of faces shared with processor 95 = 4
    Number of faces shared with processor 96 = 10
    Number of faces shared with processor 101 = 20
    Number of faces shared with processor 106 = 4
    Number of faces shared with processor 107 = 4
    Number of processor patches = 7
    Number of processor faces = 66
    Number of boundary faces = 10

Processor 101
    Number of cells = 40
    Number of faces shared with processor 92 = 1
    Number of faces shared with processor 94 = 4
    Number of faces shared with processor 95 = 4
    Number of faces shared with processor 97 = 9
    Number of faces shared with processor 99 = 1
    Number of faces shared with processor 100 = 20
    Number of faces shared with processor 102 = 14
    Number of faces shared with processor 103 = 17
    Number of faces shared with processor 106 = 3
    Number of faces shared with processor 107 = 4
    Number of processor patches = 10
    Number of processor faces = 77
    Number of boundary faces = 9

Processor 102
    Number of cells = 40
    Number of faces shared with processor 92 = 3
    Number of faces shared with processor 93 = 4
    Number of faces shared with processor 95 = 1
    Number of faces shared with processor 101 = 14
    Number of faces shared with processor 103 = 20
    Number of faces shared with processor 106 = 1
    Number of faces shared with processor 109 = 7
    Number of processor patches = 7
    Number of processor faces = 50
    Number of boundary faces = 30

Processor 103
    Number of cells = 40
    Number of faces shared with processor 92 = 3
    Number of faces shared with processor 93 = 4
    Number of faces shared with processor 99 = 20
    Number of faces shared with processor 101 = 17
    Number of faces shared with processor 102 = 20
    Number of faces shared with processor 109 = 9
    Number of processor patches = 6
    Number of processor faces = 73
    Number of boundary faces = 11

Processor 104
    Number of cells = 40
    Number of faces shared with processor 61 = 10
    Number of faces shared with processor 96 = 4
    Number of faces shared with processor 97 = 4
    Number of faces shared with processor 105 = 20
    Number of faces shared with processor 110 = 10
    Number of faces shared with processor 122 = 10
    Number of faces shared with processor 123 = 10
    Number of processor patches = 7
    Number of processor faces = 68
    Number of boundary faces = 8

Processor 105
    Number of cells = 40
    Number of faces shared with processor 61 = 10
    Number of faces shared with processor 96 = 4
    Number of faces shared with processor 97 = 3
    Number of faces shared with processor 99 = 1
    Number of faces shared with processor 104 = 20
    Number of faces shared with processor 107 = 28
    Number of faces shared with processor 111 = 10
    Number of processor patches = 7
    Number of processor faces = 76
    Number of boundary faces = 8

Processor 106
    Number of cells = 40
    Number of faces shared with processor 56 = 10
    Number of faces shared with processor 100 = 4
    Number of faces shared with processor 101 = 3
    Number of faces shared with processor 102 = 1
    Number of faces shared with processor 107 = 20
    Number of faces shared with processor 108 = 6
    Number of faces shared with processor 109 = 4
    Number of processor patches = 7
    Number of processor faces = 48
    Number of boundary faces = 28

Processor 107
    Number of cells = 40
    Number of faces shared with processor 56 = 10
    Number of faces shared with processor 100 = 4
    Number of faces shared with processor 101 = 4
    Number of faces shared with processor 105 = 28
    Number of faces shared with processor 106 = 20
    Number of faces shared with processor 108 = 6
    Number of faces shared with processor 109 = 4
    Number of processor patches = 7
    Number of processor faces = 76
    Number of boundary faces = 8

Processor 108
    Number of cells = 40
    Number of faces shared with processor 106 = 6
    Number of faces shared with processor 107 = 6
    Number of faces shared with processor 109 = 20
    Number of faces shared with processor 111 = 15
    Number of processor patches = 4
    Number of processor faces = 47
    Number of boundary faces = 33

Processor 109
    Number of cells = 40
    Number of faces shared with processor 102 = 7
    Number of faces shared with processor 103 = 9
    Number of faces shared with processor 106 = 4
    Number of faces shared with processor 107 = 4
    Number of faces shared with processor 108 = 20
    Number of faces shared with processor 111 = 13
    Number of processor patches = 6
    Number of processor faces = 57
    Number of boundary faces = 23

Processor 110
    Number of cells = 40
    Number of faces shared with processor 98 = 8
    Number of faces shared with processor 104 = 10
    Number of faces shared with processor 111 = 20
    Number of faces shared with processor 120 = 10
    Number of faces shared with processor 121 = 9
    Number of faces shared with processor 122 = 1
    Number of processor patches = 6
    Number of processor faces = 58
    Number of boundary faces = 18

Processor 111
    Number of cells = 40
    Number of faces shared with processor 99 = 8
    Number of faces shared with processor 105 = 10
    Number of faces shared with processor 108 = 15
    Number of faces shared with processor 109 = 13
    Number of faces shared with processor 110 = 20
    Number of processor patches = 5
    Number of processor faces = 66
    Number of boundary faces = 18

Processor 112
    Number of cells = 40
    Number of faces shared with processor 78 = 4
    Number of faces shared with processor 79 = 3
    Number of faces shared with processor 113 = 20
    Number of faces shared with processor 114 = 16
    Number of faces shared with processor 115 = 15
    Number of faces shared with processor 118 = 9
    Number of faces shared with processor 126 = 4
    Number of faces shared with processor 127 = 3
    Number of processor patches = 8
    Number of processor faces = 74
    Number of boundary faces = 10

Processor 113
    Number of cells = 40
    Number of faces shared with processor 78 = 4
    Number of faces shared with processor 79 = 4
    Number of faces shared with processor 112 = 20
    Number of faces shared with processor 118 = 10
    Number of faces shared with processor 126 = 4
    Number of faces shared with processor 127 = 4
    Number of processor patches = 6
    Number of processor faces = 46
    Number of boundary faces = 30

Processor 114
    Number of cells = 40
    Number of faces shared with processor 32 = 10
    Number of faces shared with processor 76 = 7
    Number of faces shared with processor 77 = 1
    Number of faces shared with processor 79 = 1
    Number of faces shared with processor 112 = 16
    Number of faces shared with processor 115 = 19
    Number of faces shared with processor 124 = 3
    Number of faces shared with processor 125 = 4
    Number of faces shared with processor 126 = 1
    Number of processor patches = 9
    Number of processor faces = 62
    Number of boundary faces = 20

Processor 115
    Number of cells = 40
    Number of faces shared with processor 32 = 10
    Number of faces shared with processor 77 = 7
    Number of faces shared with processor 78 = 1
    Number of faces shared with processor 112 = 15
    Number of faces shared with processor 114 = 19
    Number of faces shared with processor 116 = 10
    Number of faces shared with processor 117 = 10
    Number of faces shared with processor 118 = 1
    Number of faces shared with processor 124 = 4
    Number of faces shared with processor 125 = 4
    Number of faces shared with processor 127 = 1
    Number of processor patches = 11
    Number of processor faces = 82
    Number of boundary faces = 0

Processor 116
    Number of cells = 40
    Number of faces shared with processor 37 = 20
    Number of faces shared with processor 72 = 8
    Number of faces shared with processor 96 = 10
    Number of faces shared with processor 115 = 10
    Number of faces shared with processor 117 = 20
    Number of faces shared with processor 123 = 8
    Number of processor patches = 6
    Number of processor faces = 76
    Number of boundary faces = 0

Processor 117
    Number of cells = 40
    Number of faces shared with processor 73 = 7
    Number of faces shared with processor 74 = 2
    Number of faces shared with processor 97 = 9
    Number of faces shared with processor 115 = 10
    Number of faces shared with processor 116 = 20
    Number of faces shared with processor 118 = 17
    Number of faces shared with processor 119 = 14
    Number of faces shared with processor 123 = 7
    Number of processor patches = 8
    Number of processor faces = 86
    Number of boundary faces = 0

Processor 118
    Number of cells = 40
    Number of faces shared with processor 74 = 8
    Number of faces shared with processor 112 = 9
    Number of faces shared with processor 113 = 10
    Number of faces shared with processor 115 = 1
    Number of faces shared with processor 117 = 17
    Number of faces shared with processor 119 = 20
    Number of faces shared with processor 120 = 4
    Number of faces shared with processor 121 = 3
    Number of faces shared with processor 123 = 1
    Number of processor patches = 9
    Number of processor faces = 73
    Number of boundary faces = 11

Processor 119
    Number of cells = 40
    Number of faces shared with processor 74 = 7
    Number of faces shared with processor 97 = 1
    Number of faces shared with processor 98 = 20
    Number of faces shared with processor 117 = 14
    Number of faces shared with processor 118 = 20
    Number of faces shared with processor 120 = 4
    Number of faces shared with processor 121 = 4
    Number of faces shared with processor 123 = 1
    Number of processor patches = 8
    Number of processor faces = 71
    Number of boundary faces = 9

Processor 120
    Number of cells = 40
    Number of faces shared with processor 110 = 10
    Number of faces shared with processor 118 = 4
    Number of faces shared with processor 119 = 4
    Number of faces shared with processor 121 = 20
    Number of faces shared with processor 127 = 10
    Number of processor patches = 5
    Number of processor faces = 48
    Number of boundary faces = 28

Processor 121
    Number of cells = 40
    Number of faces shared with processor 110 = 9
    Number of faces shared with processor 118 = 3
    Number of faces shared with processor 119 = 4
    Number of faces shared with processor 120 = 20
    Number of faces shared with processor 122 = 14
    Number of faces shared with processor 123 = 17
    Number of faces shared with processor 127 = 10
    Number of processor patches = 7
    Number of processor faces = 77
    Number of boundary faces = 7

Processor 122
    Number of cells = 40
    Number of faces shared with processor 40 = 6
    Number of faces shared with processor 41 = 6
    Number of faces shared with processor 104 = 10
    Number of faces shared with processor 110 = 1
    Number of faces shared with processor 121 = 14
    Number of faces shared with processor 123 = 19
    Number of faces shared with processor 124 = 4
    Number of faces shared with processor 125 = 6
    Number of faces shared with processor 127 = 1
    Number of processor patches = 9
    Number of processor faces = 67
    Number of boundary faces = 17

Processor 123
    Number of cells = 40
    Number of faces shared with processor 40 = 4
    Number of faces shared with processor 41 = 4
    Number of faces shared with processor 104 = 10
    Number of faces shared with processor 116 = 8
    Number of faces shared with processor 117 = 7
    Number of faces shared with processor 118 = 1
    Number of faces shared with processor 119 = 1
    Number of faces shared with processor 121 = 17
    Number of faces shared with processor 122 = 19
    Number of faces shared with processor 124 = 5
    Number of faces shared with processor 125 = 4
    Number of processor patches = 11
    Number of processor faces = 80
    Number of boundary faces = 0

Processor 124
    Number of cells = 40
    Number of faces shared with processor 114 = 3
    Number of faces shared with processor 115 = 4
    Number of faces shared with processor 122 = 4
    Number of faces shared with processor 123 = 5
    Number of faces shared with processor 125 = 20
    Number of faces shared with processor 126 = 16
    Number of faces shared with processor 127 = 15
    Number of processor patches = 7
    Number of processor faces = 67
    Number of boundary faces = 17

Processor 125
    Number of cells = 40
    Number of faces shared with processor 42 = 10
    Number of faces shared with processor 43 = 10
    Number of faces shared with processor 114 = 4
    Number of faces shared with processor 115 = 4
    Number of faces shared with processor 122 = 6
    Number of faces shared with processor 123 = 4
    Number of faces shared with processor 124 = 20
    Number of processor patches = 7
    Number of processor faces = 58
    Number of boundary faces = 18

Processor 126
    Number of cells = 40
    Number of faces shared with processor 112 = 4
    Number of faces shared with processor 113 = 4
    Number of faces shared with processor 114 = 1
    Number of faces shared with processor 124 = 16
    Number of faces shared with processor 127 = 19
    Number of processor patches = 5
    Number of processor faces = 44
    Number of boundary faces = 38

Processor 127
    Number of cells = 40
    Number of faces shared with processor 112 = 3
    Number of faces shared with processor 113 = 4
    Number of faces shared with processor 115 = 1
    Number of faces shared with processor 120 = 10
    Number of faces shared with processor 121 = 10
    Number of faces shared with processor 122 = 1
    Number of faces shared with processor 124 = 15
    Number of faces shared with processor 126 = 19
    Number of processor patches = 8
    Number of processor faces = 63
    Number of boundary faces = 19

Processor 128
    Number of cells = 40
    Number of faces shared with processor 129 = 20
    Number of faces shared with processor 132 = 10
    Number of faces shared with processor 140 = 8
    Number of faces shared with processor 172 = 10
    Number of faces shared with processor 69 = 8
    Number of processor patches = 5
    Number of processor faces = 56
    Number of boundary faces = 20

Processor 129
    Number of cells = 40
    Number of faces shared with processor 128 = 20
    Number of faces shared with processor 130 = 16
    Number of faces shared with processor 131 = 15
    Number of faces shared with processor 133 = 9
    Number of faces shared with processor 135 = 1
    Number of faces shared with processor 141 = 6
    Number of faces shared with processor 142 = 1
    Number of faces shared with processor 173 = 9
    Number of faces shared with processor 68 = 6
    Number of faces shared with processor 71 = 1
    Number of processor patches = 10
    Number of processor faces = 84
    Number of boundary faces = 0

Processor 130
    Number of cells = 40
    Number of faces shared with processor 129 = 16
    Number of faces shared with processor 131 = 19
    Number of faces shared with processor 135 = 20
    Number of faces shared with processor 141 = 1
    Number of faces shared with processor 142 = 8
    Number of faces shared with processor 151 = 10
    Number of faces shared with processor 71 = 8
    Number of processor patches = 7
    Number of processor faces = 82
    Number of boundary faces = 0

Processor 131
    Number of cells = 40
    Number of faces shared with processor 129 = 15
    Number of faces shared with processor 130 = 19
    Number of faces shared with processor 142 = 8
    Number of faces shared with processor 151 = 10
    Number of faces shared with processor 173 = 1
    Number of faces shared with processor 174 = 20
    Number of faces shared with processor 68 = 1
    Number of faces shared with processor 71 = 8
    Number of processor patches = 8
    Number of processor faces = 82
    Number of boundary faces = 0

Processor 132
    Number of cells = 40
    Number of faces shared with processor 128 = 10
    Number of faces shared with processor 133 = 20
    Number of faces shared with processor 138 = 4
    Number of faces shared with processor 139 = 4
    Number of faces shared with processor 66 = 4
    Number of faces shared with processor 67 = 4
    Number of processor patches = 6
    Number of processor faces = 46
    Number of boundary faces = 30

Processor 133
    Number of cells = 40
    Number of faces shared with processor 129 = 9
    Number of faces shared with processor 132 = 20
    Number of faces shared with processor 134 = 16
    Number of faces shared with processor 135 = 15
    Number of faces shared with processor 138 = 3
    Number of faces shared with processor 139 = 4
    Number of faces shared with processor 65 = 1
    Number of faces shared with processor 66 = 3
    Number of faces shared with processor 67 = 3
    Number of processor patches = 9
    Number of processor faces = 74
    Number of boundary faces = 10

Processor 134
    Number of cells = 40
    Number of faces shared with processor 133 = 16
    Number of faces shared with processor 135 = 19
    Number of faces shared with processor 136 = 4
    Number of faces shared with processor 137 = 4
    Number of faces shared with processor 138 = 1
    Number of faces shared with processor 147 = 10
    Number of faces shared with processor 64 = 4
    Number of faces shared with processor 65 = 4
    Number of processor patches = 8
    Number of processor faces = 62
    Number of boundary faces = 20

Processor 135
    Number of cells = 40
    Number of faces shared with processor 129 = 1
    Number of faces shared with processor 130 = 20
    Number of faces shared with processor 133 = 15
    Number of faces shared with processor 134 = 19
    Number of faces shared with processor 136 = 3
    Number of faces shared with processor 137 = 4
    Number of faces shared with processor 139 = 1
    Number of faces shared with processor 147 = 10
    Number of faces shared with processor 64 = 4
    Number of faces shared with processor 65 = 4
    Number of faces shared with processor 67 = 1
    Number of processor patches = 11
    Number of processor faces = 82
    Number of boundary faces = 0

Processor 136
    Number of cells = 40
    Number of faces shared with processor 134 = 4
    Number of faces shared with processor 135 = 3
    Number of faces shared with processor 137 = 20
    Number of faces shared with processor 138 = 17
    Number of faces shared with processor 139 = 14
    Number of faces shared with processor 142 = 4
    Number of faces shared with processor 143 = 5
    Number of faces shared with processor 200 = 7
    Number of faces shared with processor 202 = 1
    Number of faces shared with processor 203 = 1
    Number of processor patches = 10
    Number of processor faces = 76
    Number of boundary faces = 10

Processor 137
    Number of cells = 40
    Number of faces shared with processor 134 = 4
    Number of faces shared with processor 135 = 4
    Number of faces shared with processor 136 = 20
    Number of faces shared with processor 142 = 6
    Number of faces shared with processor 143 = 4
    Number of faces shared with processor 155 = 20
    Number of faces shared with processor 201 = 8
    Number of processor patches = 7
    Number of processor faces = 66
    Number of boundary faces = 10

Processor 138
    Number of cells = 40
    Number of faces shared with processor 132 = 4
    Number of faces shared with processor 133 = 3
    Number of faces shared with processor 134 = 1
    Number of faces shared with processor 136 = 17
    Number of faces shared with processor 139 = 20
    Number of faces shared with processor 202 = 7
    Number of faces shared with processor 203 = 1
    Number of processor patches = 7
    Number of processor faces = 53
    Number of boundary faces = 31

Processor 139
    Number of cells = 40
    Number of faces shared with processor 132 = 4
    Number of faces shared with processor 133 = 4
    Number of faces shared with processor 135 = 1
    Number of faces shared with processor 136 = 14
    Number of faces shared with processor 138 = 20
    Number of faces shared with processor 140 = 10
    Number of faces shared with processor 141 = 10
    Number of faces shared with processor 142 = 1
    Number of faces shared with processor 203 = 7
    Number of processor patches = 9
    Number of processor faces = 71
    Number of boundary faces = 9

Processor 140
    Number of cells = 40
    Number of faces shared with processor 128 = 8
    Number of faces shared with processor 139 = 10
    Number of faces shared with processor 141 = 20
    Number of faces shared with processor 167 = 10
    Number of faces shared with processor 204 = 8
    Number of processor patches = 5
    Number of processor faces = 56
    Number of boundary faces = 20

Processor 141
    Number of cells = 40
    Number of faces shared with processor 129 = 6
    Number of faces shared with processor 130 = 1
    Number of faces shared with processor 139 = 10
    Number of faces shared with processor 140 = 20
    Number of faces shared with processor 142 = 14
    Number of faces shared with processor 143 = 17
    Number of faces shared with processor 167 = 9
    Number of faces shared with processor 205 = 6
    Number of faces shared with processor 207 = 1
    Number of processor patches = 9
    Number of processor faces = 84
    Number of boundary faces = 0

Processor 142
    Number of cells = 40
    Number of faces shared with processor 129 = 1
    Number of faces shared with processor 130 = 8
    Number of faces shared with processor 131 = 8
    Number of faces shared with processor 136 = 4
    Number of faces shared with processor 137 = 6
    Number of faces shared with processor 139 = 1
    Number of faces shared with processor 141 = 14
    Number of faces shared with processor 143 = 19
    Number of faces shared with processor 157 = 12
    Number of faces shared with processor 164 = 4
    Number of faces shared with processor 165 = 6
    Number of faces shared with processor 167 = 1
    Number of processor patches = 12
    Number of processor faces = 84
    Number of boundary faces = 0

Processor 143
    Number of cells = 40
    Number of faces shared with processor 136 = 5
    Number of faces shared with processor 137 = 4
    Number of faces shared with processor 141 = 17
    Number of faces shared with processor 142 = 19
    Number of faces shared with processor 157 = 8
    Number of faces shared with processor 164 = 6
    Number of faces shared with processor 165 = 4
    Number of faces shared with processor 205 = 1
    Number of faces shared with processor 206 = 8
    Number of faces shared with processor 207 = 8
    Number of processor patches = 10
    Number of processor faces = 80
    Number of boundary faces = 0

Processor 144
    Number of cells = 40
    Number of faces shared with processor 0 = 7
    Number of faces shared with processor 1 = 7
    Number of faces shared with processor 3 = 1
    Number of faces shared with processor 145 = 20
    Number of faces shared with processor 146 = 13
    Number of faces shared with processor 148 = 6
    Number of faces shared with processor 149 = 3
    Number of processor patches = 7
    Number of processor faces = 57
    Number of boundary faces = 23

Processor 145
    Number of cells = 40
    Number of faces shared with processor 144 = 20
    Number of faces shared with processor 146 = 18
    Number of faces shared with processor 148 = 4
    Number of faces shared with processor 149 = 6
    Number of faces shared with processor 152 = 7
    Number of faces shared with processor 153 = 8
    Number of faces shared with processor 154 = 2
    Number of processor patches = 7
    Number of processor faces = 65
    Number of boundary faces = 17

Processor 146
    Number of cells = 40
    Number of faces shared with processor 1 = 1
    Number of faces shared with processor 3 = 8
    Number of faces shared with processor 144 = 13
    Number of faces shared with processor 145 = 18
    Number of faces shared with processor 147 = 20
    Number of faces shared with processor 149 = 1
    Number of faces shared with processor 150 = 10
    Number of faces shared with processor 154 = 7
    Number of processor patches = 8
    Number of processor faces = 78
    Number of boundary faces = 10

Processor 147
    Number of cells = 40
    Number of faces shared with processor 2 = 8
    Number of faces shared with processor 134 = 10
    Number of faces shared with processor 135 = 10
    Number of faces shared with processor 146 = 20
    Number of faces shared with processor 151 = 10
    Number of faces shared with processor 155 = 8
    Number of processor patches = 6
    Number of processor faces = 66
    Number of boundary faces = 10

Processor 148
    Number of cells = 40
    Number of faces shared with processor 7 = 8
    Number of faces shared with processor 144 = 6
    Number of faces shared with processor 145 = 4
    Number of faces shared with processor 149 = 20
[...]
    Number of processor faces = 84
    Number of boundary faces = 0

Processor 234
    Number of cells = 40
    Number of faces shared with processor 180 = 3
    Number of faces shared with processor 181 = 4
    Number of faces shared with processor 182 = 1
    Number of faces shared with processor 224 = 1
    Number of faces shared with processor 226 = 8
    Number of faces shared with processor 233 = 16
    Number of faces shared with processor 235 = 19
    Number of faces shared with processor 248 = 9
    Number of faces shared with processor 249 = 10
    Number of faces shared with processor 250 = 1
    Number of processor patches = 10
    Number of processor faces = 72
    Number of boundary faces = 10

Processor 235
    Number of cells = 40
    Number of faces shared with processor 180 = 4
    Number of faces shared with processor 181 = 4
    Number of faces shared with processor 182 = 1
    Number of faces shared with processor 226 = 8
    Number of faces shared with processor 233 = 15
    Number of faces shared with processor 234 = 19
    Number of faces shared with processor 236 = 10
    Number of faces shared with processor 237 = 10
    Number of faces shared with processor 238 = 1
    Number of processor patches = 9
    Number of processor faces = 72
    Number of boundary faces = 10

Processor 236
    Number of cells = 40
    Number of faces shared with processor 177 = 7
    Number of faces shared with processor 228 = 3
    Number of faces shared with processor 229 = 4
    Number of faces shared with processor 230 = 2
    Number of faces shared with processor 235 = 10
    Number of faces shared with processor 237 = 20
    Number of faces shared with processor 238 = 17
    Number of faces shared with processor 239 = 14
    Number of processor patches = 8
    Number of processor faces = 77
    Number of boundary faces = 9

Processor 237
    Number of cells = 40
    Number of faces shared with processor 176 = 8
    Number of faces shared with processor 228 = 4
    Number of faces shared with processor 229 = 4
    Number of faces shared with processor 235 = 10
    Number of faces shared with processor 236 = 20
    Number of processor patches = 5
    Number of processor faces = 46
    Number of boundary faces = 30

Processor 238
    Number of cells = 40
    Number of faces shared with processor 177 = 1
    Number of faces shared with processor 178 = 7
    Number of faces shared with processor 212 = 11
    Number of faces shared with processor 230 = 8
    Number of faces shared with processor 232 = 10
    Number of faces shared with processor 233 = 9
    Number of faces shared with processor 235 = 1
    Number of faces shared with processor 236 = 17
    Number of faces shared with processor 239 = 20
    Number of processor patches = 9
    Number of processor faces = 84
    Number of boundary faces = 0

Processor 239
    Number of cells = 40
    Number of faces shared with processor 177 = 1
    Number of faces shared with processor 178 = 1
    Number of faces shared with processor 179 = 7
    Number of faces shared with processor 212 = 9
    Number of faces shared with processor 230 = 7
    Number of faces shared with processor 236 = 14
    Number of faces shared with processor 238 = 20
    Number of processor patches = 7
    Number of processor faces = 59
    Number of boundary faces = 21

Processor 240
    Number of cells = 40
    Number of faces shared with processor 197 = 20
    Number of faces shared with processor 241 = 20
    Number of faces shared with processor 247 = 10
    Number of faces shared with processor 254 = 4
    Number of faces shared with processor 255 = 4
    Number of processor patches = 5
    Number of processor faces = 58
    Number of boundary faces = 18

Processor 241
    Number of cells = 40
    Number of faces shared with processor 240 = 20
    Number of faces shared with processor 242 = 16
    Number of faces shared with processor 243 = 15
    Number of faces shared with processor 247 = 9
    Number of faces shared with processor 254 = 4
    Number of faces shared with processor 255 = 3
    Number of processor patches = 6
    Number of processor faces = 67
    Number of boundary faces = 17

Processor 242
    Number of cells = 40
    Number of faces shared with processor 241 = 16
    Number of faces shared with processor 243 = 19
    Number of faces shared with processor 252 = 3
    Number of faces shared with processor 253 = 4
    Number of faces shared with processor 254 = 1
    Number of processor patches = 5
    Number of processor faces = 43
    Number of boundary faces = 39

Processor 243
    Number of cells = 40
    Number of faces shared with processor 241 = 15
    Number of faces shared with processor 242 = 19
    Number of faces shared with processor 244 = 20
    Number of faces shared with processor 247 = 1
    Number of faces shared with processor 252 = 4
    Number of faces shared with processor 253 = 4
    Number of faces shared with processor 255 = 1
    Number of processor patches = 7
    Number of processor faces = 64
    Number of boundary faces = 18

Processor 244
    Number of cells = 40
    Number of faces shared with processor 243 = 20
    Number of faces shared with processor 245 = 20
    Number of faces shared with processor 246 = 2
    Number of faces shared with processor 247 = 14
    Number of faces shared with processor 249 = 7
    Number of processor patches = 5
    Number of processor faces = 63
    Number of boundary faces = 19

Processor 245
    Number of cells = 40
    Number of faces shared with processor 226 = 9
    Number of faces shared with processor 227 = 10
    Number of faces shared with processor 244 = 20
    Number of faces shared with processor 246 = 12
    Number of faces shared with processor 247 = 3
    Number of faces shared with processor 249 = 8
    Number of processor patches = 6
    Number of processor faces = 62
    Number of boundary faces = 18

Processor 246
    Number of cells = 40
    Number of faces shared with processor 193 = 9
    Number of faces shared with processor 224 = 10
    Number of faces shared with processor 225 = 10
    Number of faces shared with processor 226 = 1
    Number of faces shared with processor 244 = 2
    Number of faces shared with processor 245 = 12
    Number of faces shared with processor 247 = 20
    Number of faces shared with processor 249 = 1
    Number of faces shared with processor 250 = 7
    Number of processor patches = 9
    Number of processor faces = 72
    Number of boundary faces = 8

Processor 247
    Number of cells = 40
    Number of faces shared with processor 193 = 11
    Number of faces shared with processor 240 = 10
    Number of faces shared with processor 241 = 9
    Number of faces shared with processor 243 = 1
    Number of faces shared with processor 244 = 14
    Number of faces shared with processor 245 = 3
    Number of faces shared with processor 246 = 20
    Number of faces shared with processor 249 = 1
    Number of faces shared with processor 250 = 1
    Number of faces shared with processor 251 = 7
    Number of processor patches = 10
    Number of processor faces = 77
    Number of boundary faces = 7

Processor 248
    Number of cells = 40
    Number of faces shared with processor 159 = 15
    Number of faces shared with processor 234 = 9
    Number of faces shared with processor 249 = 20
    Number of faces shared with processor 250 = 6
    Number of faces shared with processor 251 = 7
    Number of faces shared with processor 252 = 4
    Number of faces shared with processor 253 = 6
    Number of faces shared with processor 255 = 1
    Number of processor patches = 8
    Number of processor faces = 68
    Number of boundary faces = 12

Processor 249
    Number of cells = 40
    Number of faces shared with processor 234 = 10
    Number of faces shared with processor 244 = 7
    Number of faces shared with processor 245 = 8
    Number of faces shared with processor 246 = 1
    Number of faces shared with processor 247 = 1
    Number of faces shared with processor 248 = 20
    Number of faces shared with processor 250 = 8
    Number of faces shared with processor 251 = 10
    Number of faces shared with processor 252 = 5
    Number of faces shared with processor 253 = 4
    Number of processor patches = 10
    Number of processor faces = 74
    Number of boundary faces = 8

Processor 250
    Number of cells = 40
    Number of faces shared with processor 156 = 4
    Number of faces shared with processor 157 = 3
    Number of faces shared with processor 159 = 1
    Number of faces shared with processor 207 = 9
    Number of faces shared with processor 232 = 10
    Number of faces shared with processor 233 = 10
    Number of faces shared with processor 234 = 1
    Number of faces shared with processor 246 = 7
    Number of faces shared with processor 247 = 1
    Number of faces shared with processor 248 = 6
    Number of faces shared with processor 249 = 8
    Number of faces shared with processor 251 = 20
    Number of processor patches = 12
    Number of processor faces = 80
    Number of boundary faces = 0

Processor 251
    Number of cells = 40
    Number of faces shared with processor 156 = 3
    Number of faces shared with processor 157 = 5
    Number of faces shared with processor 159 = 1
    Number of faces shared with processor 206 = 10
    Number of faces shared with processor 207 = 1
    Number of faces shared with processor 247 = 7
    Number of faces shared with processor 248 = 7
    Number of faces shared with processor 249 = 10
    Number of faces shared with processor 250 = 20
    Number of faces shared with processor 255 = 20
    Number of processor patches = 10
    Number of processor faces = 84
    Number of boundary faces = 0

Processor 252
    Number of cells = 40
    Number of faces shared with processor 152 = 4
    Number of faces shared with processor 153 = 3
    Number of faces shared with processor 242 = 3
    Number of faces shared with processor 243 = 4
    Number of faces shared with processor 248 = 4
    Number of faces shared with processor 249 = 5
    Number of faces shared with processor 253 = 20
    Number of faces shared with processor 254 = 16
    Number of faces shared with processor 255 = 15
    Number of processor patches = 9
    Number of processor faces = 74
    Number of boundary faces = 10

Processor 253
    Number of cells = 40
    Number of faces shared with processor 152 = 4
    Number of faces shared with processor 153 = 4
    Number of faces shared with processor 242 = 4
    Number of faces shared with processor 243 = 4
    Number of faces shared with processor 248 = 6
    Number of faces shared with processor 249 = 4
    Number of faces shared with processor 252 = 20
    Number of processor patches = 7
    Number of processor faces = 46
    Number of boundary faces = 30

Processor 254
    Number of cells = 40
    Number of faces shared with processor 152 = 1
    Number of faces shared with processor 154 = 3
    Number of faces shared with processor 155 = 4
    Number of faces shared with processor 201 = 10
    Number of faces shared with processor 240 = 4
    Number of faces shared with processor 241 = 4
    Number of faces shared with processor 242 = 1
    Number of faces shared with processor 252 = 16
    Number of faces shared with processor 255 = 19
    Number of processor patches = 9
    Number of processor faces = 62
    Number of boundary faces = 20

Processor 255
    Number of cells = 40
    Number of faces shared with processor 153 = 1
    Number of faces shared with processor 154 = 4
    Number of faces shared with processor 155 = 4
    Number of faces shared with processor 201 = 10
    Number of faces shared with processor 240 = 4
    Number of faces shared with processor 241 = 3
    Number of faces shared with processor 243 = 1
    Number of faces shared with processor 248 = 1
    Number of faces shared with processor 251 = 20
    Number of faces shared with processor 252 = 15
    Number of faces shared with processor 254 = 19
    Number of processor patches = 11
    Number of processor faces = 82
    Number of boundary faces = 0

Number of processor faces = 8851
Max number of cells = 40 (0% above average 40)
Max number of processor patches = 12 (53.2934% above average 7.82812)
Max number of faces between processors = 88 (27.2625% above average 69.1484)

Time = 0

Processor 0: field transfer
Processor 1: field transfer
Processor 2: field transfer
Processor 3: field transfer
Processor 4: field transfer
Processor 5: field transfer
Processor 6: field transfer
Processor 7: field transfer
Processor 8: field transfer
Processor 9: field transfer
Processor 10: field transfer
Processor 11: field transfer
Processor 12: field transfer
Processor 13: field transfer
Processor 14: field transfer
Processor 15: field transfer
Processor 16: field transfer
Processor 17: field transfer
Processor 18: field transfer
Processor 19: field transfer
Processor 20: field transfer
Processor 21: field transfer
Processor 22: field transfer
Processor 23: field transfer
Processor 24: field transfer
Processor 25: field transfer
Processor 26: field transfer
Processor 27: field transfer
Processor 28: field transfer
Processor 29: field transfer
Processor 30: field transfer
Processor 31: field transfer
Processor 32: field transfer
Processor 33: field transfer
Processor 34: field transfer
Processor 35: field transfer
Processor 36: field transfer
Processor 37: field transfer
Processor 38: field transfer
Processor 39: field transfer
Processor 40: field transfer
Processor 41: field transfer
Processor 42: field transfer
Processor 43: field transfer
Processor 44: field transfer
Processor 45: field transfer
Processor 46: field transfer
Processor 47: field transfer
Processor 48: field transfer
Processor 49: field transfer
Processor 50: field transfer
Processor 51: field transfer
Processor 52: field transfer
Processor 53: field transfer
Processor 54: field transfer
Processor 55: field transfer
Processor 56: field transfer
Processor 57: field transfer
Processor 58: field transfer
Processor 59: field transfer
Processor 60: field transfer
Processor 61: field transfer
Processor 62: field transfer
Processor 63: field transfer
Processor 64: field transfer
Processor 65: field transfer
Processor 66: field transfer
Processor 67: field transfer
Processor 68: field transfer
Processor 69: field transfer
Processor 70: field transfer
Processor 71: field transfer
Processor 72: field transfer
Processor 73: field transfer
Processor 74: field transfer
Processor 75: field transfer
Processor 76: field transfer
Processor 77: field transfer
Processor 78: field transfer
Processor 79: field transfer
Processor 80: field transfer
Processor 81: field transfer
Processor 82: field transfer
Processor 83: field transfer
Processor 84: field transfer
Processor 85: field transfer
Processor 86: field transfer
Processor 87: field transfer
Processor 88: field transfer
Processor 89: field transfer
Processor 90: field transfer
Processor 91: field transfer
Processor 92: field transfer
Processor 93: field transfer
Processor 94: field transfer
Processor 95: field transfer
Processor 96: field transfer
Processor 97: field transfer
Processor 98: field transfer
Processor 99: field transfer
Processor 100: field transfer
Processor 101: field transfer
Processor 102: field transfer
Processor 103: field transfer
Processor 104: field transfer
Processor 105: field transfer
Processor 106: field transfer
Processor 107: field transfer
Processor 108: field transfer
Processor 109: field transfer
Processor 110: field transfer
Processor 111: field transfer
Processor 112: field transfer
Processor 113: field transfer
Processor 114: field transfer
Processor 115: field transfer
Processor 116: field transfer
Processor 117: field transfer
Processor 118: field transfer
Processor 119: field transfer
Processor 120: field transfer
Processor 121: field transfer
Processor 122: field transfer
Processor 123: field transfer
Processor 124: field transfer
Processor 125: field transfer
Processor 126: field transfer
Processor 127: field transfer
Processor 128: field transfer
Processor 129: field transfer
Processor 130: field transfer
Processor 131: field transfer
Processor 132: field transfer
Processor 133: field transfer
Processor 134: field transfer
Processor 135: field transfer
Processor 136: field transfer
Processor 137: field transfer
Processor 138: field transfer
Processor 139: field transfer
Processor 140: field transfer
Processor 141: field transfer
Processor 142: field transfer
Processor 143: field transfer
Processor 144: field transfer
Processor 145: field transfer
Processor 146: field transfer
Processor 147: field transfer
Processor 148: field transfer
Processor 149: field transfer
Processor 150: field transfer
Processor 151: field transfer
Processor 152: field transfer
Processor 153: field transfer
Processor 154: field transfer
Processor 155: field transfer
Processor 156: field transfer
Processor 157: field transfer
Processor 158: field transfer
Processor 159: field transfer
Processor 160: field transfer
Processor 161: field transfer
Processor 162: field transfer
Processor 163: field transfer
Processor 164: field transfer
Processor 165: field transfer
Processor 166: field transfer
Processor 167: field transfer
Processor 168: field transfer
Processor 169: field transfer
Processor 170: field transfer
Processor 171: field transfer
Processor 172: field transfer
Processor 173: field transfer
Processor 174: field transfer
Processor 175: field transfer
Processor 176: field transfer
Processor 177: field transfer
Processor 178: field transfer
Processor 179: field transfer
Processor 180: field transfer
Processor 181: field transfer
Processor 182: field transfer
Processor 183: field transfer
Processor 184: field transfer
Processor 185: field transfer
Processor 186: field transfer
Processor 187: field transfer
Processor 188: field transfer
Processor 189: field transfer
Processor 190: field transfer
Processor 191: field transfer
Processor 192: field transfer
Processor 193: field transfer
Processor 194: field transfer
Processor 195: field transfer
Processor 196: field transfer
Processor 197: field transfer
Processor 198: field transfer
Processor 199: field transfer
Processor 200: field transfer
Processor 201: field transfer
Processor 202: field transfer
Processor 203: field transfer
Processor 204: field transfer
Processor 205: field transfer
Processor 206: field transfer
Processor 207: field transfer
Processor 208: field transfer
Processor 209: field transfer
Processor 210: field transfer
Processor 211: field transfer
Processor 212: field transfer
Processor 213: field transfer
Processor 214: field transfer
Processor 215: field transfer
Processor 216: field transfer
Processor 217: field transfer
Processor 218: field transfer
Processor 219: field transfer
Processor 220: field transfer
Processor 221: field transfer
Processor 222: field transfer
Processor 223: field transfer
Processor 224: field transfer
Processor 225: field transfer
Processor 226: field transfer
Processor 227: field transfer
Processor 228: field transfer
Processor 229: field transfer
Processor 230: field transfer
Processor 231: field transfer
Processor 232: field transfer
Processor 233: field transfer
Processor 234: field transfer
Processor 235: field transfer
Processor 236: field transfer
Processor 237: field transfer
Processor 238: field transfer
Processor 239: field transfer
Processor 240: field transfer
Processor 241: field transfer
Processor 242: field transfer
Processor 243: field transfer
Processor 244: field transfer
Processor 245: field transfer
Processor 246: field transfer
Processor 247: field transfer
Processor 248: field transfer
Processor 249: field transfer
Processor 250: field transfer
Processor 251: field transfer
Processor 252: field transfer
Processor 253: field transfer
Processor 254: field transfer
Processor 255: field transfer

End

