Cleaning /alaska/steveb/hpc-tests/stage/alaska/ib-gcc9-openmpi4-ucx/openfoam/Openfoam_Mbike_4 case
Running surfaceFeatureExtract on /alaska/steveb/hpc-tests/stage/alaska/ib-gcc9-openmpi4-ucx/openfoam/Openfoam_Mbike_4
Running blockMesh on /alaska/steveb/hpc-tests/stage/alaska/ib-gcc9-openmpi4-ucx/openfoam/Openfoam_Mbike_4
Running decomposePar on /alaska/steveb/hpc-tests/stage/alaska/ib-gcc9-openmpi4-ucx/openfoam/Openfoam_Mbike_4
Running snappyHexMesh in parallel on /alaska/steveb/hpc-tests/stage/alaska/ib-gcc9-openmpi4-ucx/openfoam/Openfoam_Mbike_4 using 128 processes
/*---------------------------------------------------------------------------*\
  =========                 |
  \\      /  F ield         | OpenFOAM: The Open Source CFD Toolbox
   \\    /   O peration     | Website:  https://openfoam.org
    \\  /    A nd           | Version:  7
     \\/     M anipulation  |
\*---------------------------------------------------------------------------*/
Build  : 7
Exec   : /alaska/steveb/spack/opt/spack/linux-centos7-broadwell/gcc-9.3.0/openfoam-org-7-4zgjbg262zaxxjzrnrn5dq63faiv6uvo/platforms/linux64GccDPInt32-spack/bin/simpleFoam -parallel
Date   : Sep 11 2020
Time   : 10:26:53
Host   : "openhpc-compute-6"
PID    : 8243
I/O    : uncollated
Case   : /alaska/steveb/hpc-tests/stage/alaska/ib-gcc9-openmpi4-ucx/openfoam/Openfoam_Mbike_4
nProcs : 128
Slaves : 
127
(
"openhpc-compute-6.8244"
"openhpc-compute-6.8245"
"openhpc-compute-6.8246"
"openhpc-compute-6.8247"
"openhpc-compute-6.8248"
"openhpc-compute-6.8249"
"openhpc-compute-6.8250"
"openhpc-compute-6.8251"
"openhpc-compute-6.8252"
"openhpc-compute-6.8253"
"openhpc-compute-6.8254"
"openhpc-compute-6.8255"
"openhpc-compute-6.8256"
"openhpc-compute-6.8257"
"openhpc-compute-6.8258"
"openhpc-compute-6.8259"
"openhpc-compute-6.8260"
"openhpc-compute-6.8261"
"openhpc-compute-6.8262"
"openhpc-compute-6.8263"
"openhpc-compute-6.8264"
"openhpc-compute-6.8265"
"openhpc-compute-6.8266"
"openhpc-compute-6.8267"
"openhpc-compute-6.8268"
"openhpc-compute-6.8269"
"openhpc-compute-6.8270"
"openhpc-compute-6.8271"
"openhpc-compute-6.8272"
"openhpc-compute-6.8273"
"openhpc-compute-6.8274"
"openhpc-compute-7.47469"
"openhpc-compute-7.47470"
"openhpc-compute-7.47471"
"openhpc-compute-7.47472"
"openhpc-compute-7.47473"
"openhpc-compute-7.47474"
"openhpc-compute-7.47475"
"openhpc-compute-7.47476"
"openhpc-compute-7.47477"
"openhpc-compute-7.47478"
"openhpc-compute-7.47479"
"openhpc-compute-7.47480"
"openhpc-compute-7.47481"
"openhpc-compute-7.47482"
"openhpc-compute-7.47483"
"openhpc-compute-7.47484"
"openhpc-compute-7.47485"
"openhpc-compute-7.47486"
"openhpc-compute-7.47487"
"openhpc-compute-7.47488"
"openhpc-compute-7.47489"
"openhpc-compute-7.47490"
"openhpc-compute-7.47491"
"openhpc-compute-7.47492"
"openhpc-compute-7.47493"
"openhpc-compute-7.47494"
"openhpc-compute-7.47495"
"openhpc-compute-7.47496"
"openhpc-compute-7.47497"
"openhpc-compute-7.47498"
"openhpc-compute-7.47499"
"openhpc-compute-7.47500"
"openhpc-compute-8.36011"
"openhpc-compute-8.36012"
"openhpc-compute-8.36013"
"openhpc-compute-8.36014"
"openhpc-compute-8.36015"
"openhpc-compute-8.36016"
"openhpc-compute-8.36017"
"openhpc-compute-8.36018"
"openhpc-compute-8.36019"
"openhpc-compute-8.36020"
"openhpc-compute-8.36021"
"openhpc-compute-8.36022"
"openhpc-compute-8.36023"
"openhpc-compute-8.36024"
"openhpc-compute-8.36025"
"openhpc-compute-8.36026"
"openhpc-compute-8.36027"
"openhpc-compute-8.36028"
"openhpc-compute-8.36029"
"openhpc-compute-8.36030"
"openhpc-compute-8.36031"
"openhpc-compute-8.36032"
"openhpc-compute-8.36033"
"openhpc-compute-8.36034"
"openhpc-compute-8.36035"
"openhpc-compute-8.36036"
"openhpc-compute-8.36037"
"openhpc-compute-8.36038"
"openhpc-compute-8.36039"
"openhpc-compute-8.36040"
"openhpc-compute-8.36041"
"openhpc-compute-8.36042"
"openhpc-compute-9.29140"
"openhpc-compute-9.29141"
"openhpc-compute-9.29142"
"openhpc-compute-9.29143"
"openhpc-compute-9.29144"
"openhpc-compute-9.29145"
"openhpc-compute-9.29146"
"openhpc-compute-9.29147"
"openhpc-compute-9.29148"
"openhpc-compute-9.29149"
"openhpc-compute-9.29150"
"openhpc-compute-9.29151"
"openhpc-compute-9.29152"
"openhpc-compute-9.29153"
"openhpc-compute-9.29154"
"openhpc-compute-9.29155"
"openhpc-compute-9.29156"
"openhpc-compute-9.29157"
"openhpc-compute-9.29158"
"openhpc-compute-9.29159"
"openhpc-compute-9.29160"
"openhpc-compute-9.29161"
"openhpc-compute-9.29162"
"openhpc-compute-9.29163"
"openhpc-compute-9.29164"
"openhpc-compute-9.29165"
"openhpc-compute-9.29166"
"openhpc-compute-9.29167"
"openhpc-compute-9.29168"
"openhpc-compute-9.29169"
"openhpc-compute-9.29170"
"openhpc-compute-9.29171"
)

Pstream initialized with:
    floatTransfer      : 0
    nProcsSimpleSum    : 0
    commsType          : nonBlocking
    polling iterations : 0
sigFpe : Enabling floating point exception trapping (FOAM_SIGFPE).
fileModificationChecking : Monitoring run-time modified files using timeStampMaster (fileModificationSkew 10)
allowSystemOperations : Allowing user-supplied system call operations

// * * * * * * * * * * * * * * * * * * * * * * * * * * * * * * * * * * * * * //
Create time

Create mesh for time = 0


SIMPLE: No convergence criteria found

Reading field p

Reading field U

Reading/calculating face flux field phi

Selecting incompressible transport model Newtonian
Selecting turbulence model type RAS
Selecting RAS turbulence model kOmegaSST
Selecting patchDistMethod meshWave
RAS
{
    RASModel        kOmegaSST;
    turbulence      on;
    printCoeffs     on;
    alphaK1         0.85;
    alphaK2         1;
    alphaOmega1     0.5;
    alphaOmega2     0.856;
    gamma1          0.555556;
    gamma2          0.44;
    beta1           0.075;
    beta2           0.0828;
    betaStar        0.09;
    a1              0.31;
    b1              1;
    c1              10;
    F3              false;
}

No MRF models present

No finite volume options present

Starting time loop

Reading surface description:
    yNormal

forces forceCoeffs1:
    Not including porosity effects
forceCoeffs forceCoeffs1:
    Not including porosity effects
Time = 1

smoothSolver:  Solving for Ux, Initial residual = 1, Final residual = 0.085464, No Iterations 14
smoothSolver:  Solving for Uy, Initial residual = 1, Final residual = 0.094633, No Iterations 12
smoothSolver:  Solving for Uz, Initial residual = 1, Final residual = 0.0877917, No Iterations 13
GAMG:  Solving for p, Initial residual = 1, Final residual = 0.00954578, No Iterations 6
time step continuity errors : sum local = 0.000675254, global = 4.28541e-06, cumulative = 4.28541e-06
smoothSolver:  Solving for omega, Initial residual = 0.0279512, Final residual = 0.0012562, No Iterations 3
bounding omega, min: -18389.6 max: 9.44907e+06 average: 496.936
smoothSolver:  Solving for k, Initial residual = 1, Final residual = 0.0628808, No Iterations 4
ExecutionTime = 0.89 s  ClockTime = 1 s

forceCoeffs forceCoeffs1 write:
    Cm    = 12.3295
    Cd    = 26.6743
    Cl    = -1.76778
    Cl(f) = 11.4456
    Cl(r) = -13.2134

Time = 2

smoothSolver:  Solving for Ux, Initial residual = 0.107012, Final residual = 0.00884144, No Iterations 12
smoothSolver:  Solving for Uy, Initial residual = 0.514813, Final residual = 0.0479395, No Iterations 11
smoothSolver:  Solving for Uz, Initial residual = 0.394053, Final residual = 0.0349994, No Iterations 11
GAMG:  Solving for p, Initial residual = 0.236206, Final residual = 0.000922914, No Iterations 5
time step continuity errors : sum local = 0.00406627, global = -1.36489e-05, cumulative = -9.36351e-06
smoothSolver:  Solving for omega, Initial residual = 1, Final residual = 0.0648016, No Iterations 4
smoothSolver:  Solving for k, Initial residual = 0.969267, Final residual = 1.93778e-08, No Iterations 1
ExecutionTime = 1.15 s  ClockTime = 1 s

forceCoeffs forceCoeffs1 write:
    Cm    = 4.64939
    Cd    = 10.6726
    Cl    = -0.347512
    Cl(f) = 4.47563
    Cl(r) = -4.82315

Time = 3

smoothSolver:  Solving for Ux, Initial residual = 0.140705, Final residual = 0.0106265, No Iterations 5
smoothSolver:  Solving for Uy, Initial residual = 0.558973, Final residual = 0.041318, No Iterations 6
smoothSolver:  Solving for Uz, Initial residual = 0.637759, Final residual = 0.0460207, No Iterations 5
GAMG:  Solving for p, Initial residual = 0.14532, Final residual = 0.000839388, No Iterations 5
time step continuity errors : sum local = 0.00299113, global = 8.83318e-06, cumulative = -5.30338e-07
smoothSolver:  Solving for omega, Initial residual = 0.53847, Final residual = 5.02121e-13, No Iterations 1
bounding omega, min: -2.45659e+07 max: 1.14617e+16 average: 3.83903e+10
smoothSolver:  Solving for k, Initial residual = 0.114793, Final residual = 2.34274e-08, No Iterations 1
ExecutionTime = 1.37 s  ClockTime = 1 s

forceCoeffs forceCoeffs1 write:
    Cm    = 3.33917
    Cd    = 7.59611
    Cl    = -1.24153
    Cl(f) = 2.71841
    Cl(r) = -3.95994

Time = 4

smoothSolver:  Solving for Ux, Initial residual = 0.0608639, Final residual = 0.00469538, No Iterations 6
smoothSolver:  Solving for Uy, Initial residual = 0.448165, Final residual = 0.0351433, No Iterations 6
smoothSolver:  Solving for Uz, Initial residual = 0.45765, Final residual = 0.0442553, No Iterations 5
GAMG:  Solving for p, Initial residual = 0.0821391, Final residual = 0.00042886, No Iterations 5
time step continuity errors : sum local = 0.00176215, global = 3.92741e-06, cumulative = 3.39707e-06
smoothSolver:  Solving for omega, Initial residual = 0.53847, Final residual = 1.24551e-12, No Iterations 1
bounding omega, min: -8.5942e+06 max: 3.4385e+15 average: 1.15171e+10
smoothSolver:  Solving for k, Initial residual = 0.0269932, Final residual = 6.27301e-08, No Iterations 1
ExecutionTime = 1.59 s  ClockTime = 2 s

forceCoeffs forceCoeffs1 write:
    Cm    = 1.36062
    Cd    = 3.37704
    Cl    = -0.691629
    Cl(f) = 1.01481
    Cl(r) = -1.70644

Time = 5

smoothSolver:  Solving for Ux, Initial residual = 0.0327925, Final residual = 0.00259942, No Iterations 7
smoothSolver:  Solving for Uy, Initial residual = 0.362028, Final residual = 0.0352898, No Iterations 6
smoothSolver:  Solving for Uz, Initial residual = 0.359925, Final residual = 0.0325703, No Iterations 6
GAMG:  Solving for p, Initial residual = 0.0618775, Final residual = 0.000283376, No Iterations 5
time step continuity errors : sum local = 0.00133482, global = 7.15132e-06, cumulative = 1.05484e-05
smoothSolver:  Solving for omega, Initial residual = 0.53847, Final residual = 2.47787e-12, No Iterations 1
bounding omega, min: -983157 max: 1.03155e+15 average: 3.45515e+09
smoothSolver:  Solving for k, Initial residual = 0.00695804, Final residual = 1.84843e-07, No Iterations 1
ExecutionTime = 1.8 s  ClockTime = 2 s

forceCoeffs forceCoeffs1 write:
    Cm    = 1.07327
    Cd    = 2.56078
    Cl    = 0.0197639
    Cl(f) = 1.08315
    Cl(r) = -1.06339

Time = 6

smoothSolver:  Solving for Ux, Initial residual = 0.0270541, Final residual = 0.00223724, No Iterations 6
smoothSolver:  Solving for Uy, Initial residual = 0.329508, Final residual = 0.0303093, No Iterations 6
smoothSolver:  Solving for Uz, Initial residual = 0.317326, Final residual = 0.0242322, No Iterations 6
GAMG:  Solving for p, Initial residual = 0.0544612, Final residual = 0.000292366, No Iterations 5
time step continuity errors : sum local = 0.00132747, global = 7.67756e-06, cumulative = 1.8226e-05
smoothSolver:  Solving for omega, Initial residual = 0.53847, Final residual = 5.10104e-12, No Iterations 1
bounding omega, min: -120128 max: 3.09465e+14 average: 1.03655e+09
smoothSolver:  Solving for k, Initial residual = 0.00186263, Final residual = 5.4517e-07, No Iterations 1
ExecutionTime = 2.02 s  ClockTime = 2 s

forceCoeffs forceCoeffs1 write:
    Cm    = 0.0118831
    Cd    = 0.0250103
    Cl    = -0.311197
    Cl(f) = -0.143715
    Cl(r) = -0.167481

Time = 7

smoothSolver:  Solving for Ux, Initial residual = 0.0240057, Final residual = 0.00225168, No Iterations 6
smoothSolver:  Solving for Uy, Initial residual = 0.279955, Final residual = 0.0214451, No Iterations 7
smoothSolver:  Solving for Uz, Initial residual = 0.313905, Final residual = 0.0254807, No Iterations 6
GAMG:  Solving for p, Initial residual = 0.0458272, Final residual = 0.000262023, No Iterations 5
time step continuity errors : sum local = 0.00124863, global = 2.89601e-05, cumulative = 4.7186e-05
smoothSolver:  Solving for omega, Initial residual = 0.53847, Final residual = 2.17786e-11, No Iterations 1
bounding omega, min: -261352 max: 9.28395e+13 average: 3.10966e+08
smoothSolver:  Solving for k, Initial residual = 0.000518133, Final residual = 1.69543e-06, No Iterations 1
ExecutionTime = 2.23 s  ClockTime = 2 s

forceCoeffs forceCoeffs1 write:
    Cm    = 0.533142
    Cd    = 1.12222
    Cl    = 0.136016
    Cl(f) = 0.60115
    Cl(r) = -0.465134

Time = 8

smoothSolver:  Solving for Ux, Initial residual = 0.0186015, Final residual = 0.00166396, No Iterations 6
smoothSolver:  Solving for Uy, Initial residual = 0.27711, Final residual = 0.0261942, No Iterations 6
smoothSolver:  Solving for Uz, Initial residual = 0.293946, Final residual = 0.0233203, No Iterations 6
GAMG:  Solving for p, Initial residual = 0.0441657, Final residual = 0.000398463, No Iterations 4
time step continuity errors : sum local = 0.00178033, global = 4.46421e-05, cumulative = 9.18281e-05
smoothSolver:  Solving for omega, Initial residual = 0.53847, Final residual = 6.5183e-11, No Iterations 1
bounding omega, min: -759.775 max: 2.78518e+13 average: 9.32912e+07
smoothSolver:  Solving for k, Initial residual = 0.000157243, Final residual = 5.33949e-06, No Iterations 1
ExecutionTime = 2.43 s  ClockTime = 2 s

forceCoeffs forceCoeffs1 write:
    Cm    = 0.21253
    Cd    = 0.475176
    Cl    = -0.117785
    Cl(f) = 0.153638
    Cl(r) = -0.271423

Time = 9

smoothSolver:  Solving for Ux, Initial residual = 0.0122783, Final residual = 0.00113305, No Iterations 7
smoothSolver:  Solving for Uy, Initial residual = 0.22619, Final residual = 0.0193588, No Iterations 7
smoothSolver:  Solving for Uz, Initial residual = 0.230774, Final residual = 0.0187378, No Iterations 7
GAMG:  Solving for p, Initial residual = 0.0417509, Final residual = 0.000347395, No Iterations 4
time step continuity errors : sum local = 0.00151465, global = 3.0818e-05, cumulative = 0.000122646
smoothSolver:  Solving for omega, Initial residual = 0.53847, Final residual = 2.15975e-10, No Iterations 1
bounding omega, min: -7659.92 max: 8.35555e+12 average: 2.79886e+07
smoothSolver:  Solving for k, Initial residual = 8.17807e-05, Final residual = 7.8234e-06, No Iterations 2
ExecutionTime = 2.62 s  ClockTime = 3 s

forceCoeffs forceCoeffs1 write:
    Cm    = 0.280861
    Cd    = 0.61402
    Cl    = -0.0667486
    Cl(f) = 0.247487
    Cl(r) = -0.314235

Time = 10

smoothSolver:  Solving for Ux, Initial residual = 0.011261, Final residual = 0.00100481, No Iterations 7
smoothSolver:  Solving for Uy, Initial residual = 0.205055, Final residual = 0.0184708, No Iterations 7
smoothSolver:  Solving for Uz, Initial residual = 0.230602, Final residual = 0.0185312, No Iterations 7
GAMG:  Solving for p, Initial residual = 0.0401452, Final residual = 0.000291863, No Iterations 4
time step continuity errors : sum local = 0.00123369, global = 3.55352e-06, cumulative = 0.0001262
smoothSolver:  Solving for omega, Initial residual = 0.53847, Final residual = 7.08104e-10, No Iterations 1
bounding omega, min: -22144 max: 2.50667e+12 average: 8.39767e+06
smoothSolver:  Solving for k, Initial residual = 0.000143364, Final residual = 1.17341e-05, No Iterations 3
ExecutionTime = 2.83 s  ClockTime = 3 s

forceCoeffs forceCoeffs1 write:
    Cm    = 0.230574
    Cd    = 0.523317
    Cl    = -0.124198
    Cl(f) = 0.168474
    Cl(r) = -0.292673

Time = 11

smoothSolver:  Solving for Ux, Initial residual = 0.00966427, Final residual = 0.000907902, No Iterations 7
smoothSolver:  Solving for Uy, Initial residual = 0.186143, Final residual = 0.0175844, No Iterations 7
smoothSolver:  Solving for Uz, Initial residual = 0.214457, Final residual = 0.017994, No Iterations 7
GAMG:  Solving for p, Initial residual = 0.0391152, Final residual = 0.000302991, No Iterations 4
time step continuity errors : sum local = 0.00122763, global = -3.02387e-06, cumulative = 0.000123176
smoothSolver:  Solving for omega, Initial residual = 0.538469, Final residual = 2.09531e-09, No Iterations 1
bounding omega, min: -38361.9 max: 7.52e+11 average: 2.52033e+06
smoothSolver:  Solving for k, Initial residual = 0.000409588, Final residual = 3.55802e-05, No Iterations 3
ExecutionTime = 3.02 s  ClockTime = 3 s

forceCoeffs forceCoeffs1 write:
    Cm    = 0.274888
    Cd    = 0.58882
    Cl    = -0.0428339
    Cl(f) = 0.253471
    Cl(r) = -0.296305

Time = 12

smoothSolver:  Solving for Ux, Initial residual = 0.00922824, Final residual = 0.000857228, No Iterations 7
smoothSolver:  Solving for Uy, Initial residual = 0.177811, Final residual = 0.0170633, No Iterations 7
smoothSolver:  Solving for Uz, Initial residual = 0.206322, Final residual = 0.0173975, No Iterations 7
GAMG:  Solving for p, Initial residual = 0.0385579, Final residual = 0.000306739, No Iterations 4
time step continuity errors : sum local = 0.001196, global = -7.22085e-06, cumulative = 0.000115955
smoothSolver:  Solving for omega, Initial residual = 0.538469, Final residual = 6.2061e-09, No Iterations 1
smoothSolver:  Solving for k, Initial residual = 0.00118331, Final residual = 0.000101636, No Iterations 3
bounding k, min: -1.66387e-06 max: 189.158 average: 0.555516
ExecutionTime = 3.22 s  ClockTime = 3 s

forceCoeffs forceCoeffs1 write:
    Cm    = 0.228835
    Cd    = 0.485999
    Cl    = -0.0493324
    Cl(f) = 0.204169
    Cl(r) = -0.253502

Time = 13

smoothSolver:  Solving for Ux, Initial residual = 0.00930993, Final residual = 0.0008711, No Iterations 7
smoothSolver:  Solving for Uy, Initial residual = 0.170617, Final residual = 0.0166614, No Iterations 7
smoothSolver:  Solving for Uz, Initial residual = 0.207955, Final residual = 0.0180589, No Iterations 7
GAMG:  Solving for p, Initial residual = 0.0375736, Final residual = 0.000276691, No Iterations 4
time step continuity errors : sum local = 0.00103523, global = -6.98531e-06, cumulative = 0.00010897
smoothSolver:  Solving for omega, Initial residual = 0.538466, Final residual = 2.41774e-08, No Iterations 1
bounding omega, min: -395.143 max: 6.768e+10 average: 228056
smoothSolver:  Solving for k, Initial residual = 0.00273658, Final residual = 0.000235049, No Iterations 3
bounding k, min: -1.00626e-05 max: 301.22 average: 0.574625
ExecutionTime = 3.42 s  ClockTime = 3 s

forceCoeffs forceCoeffs1 write:
    Cm    = 0.229219
    Cd    = 0.494883
    Cl    = -0.0287374
    Cl(f) = 0.214851
    Cl(r) = -0.243588

Time = 14

smoothSolver:  Solving for Ux, Initial residual = 0.00777817, Final residual = 0.000622959, No Iterations 8
smoothSolver:  Solving for Uy, Initial residual = 0.158173, Final residual = 0.0123106, No Iterations 8
smoothSolver:  Solving for Uz, Initial residual = 0.179009, Final residual = 0.0166566, No Iterations 7
GAMG:  Solving for p, Initial residual = 0.0372027, Final residual = 0.000286361, No Iterations 4
time step continuity errors : sum local = 0.00101916, global = -4.25814e-06, cumulative = 0.000104711
smoothSolver:  Solving for omega, Initial residual = 0.538458, Final residual = 9.60457e-08, No Iterations 1
smoothSolver:  Solving for k, Initial residual = 0.00465942, Final residual = 0.000383362, No Iterations 3
bounding k, min: -4.15456e-07 max: 312.713 average: 0.592342
ExecutionTime = 3.61 s  ClockTime = 4 s

forceCoeffs forceCoeffs1 write:
    Cm    = 0.24515
    Cd    = 0.523215
    Cl    = 0.0268453
    Cl(f) = 0.258573
    Cl(r) = -0.231727

Time = 15

smoothSolver:  Solving for Ux, Initial residual = 0.00686722, Final residual = 0.000619895, No Iterations 8
smoothSolver:  Solving for Uy, Initial residual = 0.137233, Final residual = 0.0119366, No Iterations 8
smoothSolver:  Solving for Uz, Initial residual = 0.160075, Final residual = 0.0131445, No Iterations 8
GAMG:  Solving for p, Initial residual = 0.0369885, Final residual = 0.000294895, No Iterations 4
time step continuity errors : sum local = 0.00100087, global = -2.5334e-06, cumulative = 0.000102178
smoothSolver:  Solving for omega, Initial residual = 0.538429, Final residual = 3.9857e-07, No Iterations 1
bounding omega, min: -7181.79 max: 6.0912e+09 average: 21654.9
smoothSolver:  Solving for k, Initial residual = 0.00646933, Final residual = 0.000513362, No Iterations 3
bounding k, min: -2.22638e-08 max: 776.799 average: 0.609663
ExecutionTime = 3.81 s  ClockTime = 4 s

forceCoeffs forceCoeffs1 write:
    Cm    = 0.219348
    Cd    = 0.486627
    Cl    = 0.0243635
    Cl(f) = 0.23153
    Cl(r) = -0.207166

Time = 16

smoothSolver:  Solving for Ux, Initial residual = 0.00709445, Final residual = 0.000608413, No Iterations 8
smoothSolver:  Solving for Uy, Initial residual = 0.130434, Final residual = 0.0114209, No Iterations 8
smoothSolver:  Solving for Uz, Initial residual = 0.160651, Final residual = 0.012627, No Iterations 8
GAMG:  Solving for p, Initial residual = 0.0368039, Final residual = 0.000283005, No Iterations 4
time step continuity errors : sum local = 0.000910833, global = -1.49871e-06, cumulative = 0.000100679
smoothSolver:  Solving for omega, Initial residual = 0.538329, Final residual = 1.64528e-06, No Iterations 1
bounding omega, min: -68.3788 max: 1.82736e+09 average: 7336.12
smoothSolver:  Solving for k, Initial residual = 0.00664955, Final residual = 0.000539255, No Iterations 3
bounding k, min: -4.24244e-07 max: 739.92 average: 0.622333
ExecutionTime = 4 s  ClockTime = 4 s

forceCoeffs forceCoeffs1 write:
    Cm    = 0.209256
    Cd    = 0.475605
    Cl    = 0.0374672
    Cl(f) = 0.22799
    Cl(r) = -0.190523

Time = 17

smoothSolver:  Solving for Ux, Initial residual = 0.00641399, Final residual = 0.000601039, No Iterations 8
smoothSolver:  Solving for Uy, Initial residual = 0.118497, Final residual = 0.0110254, No Iterations 8
smoothSolver:  Solving for Uz, Initial residual = 0.145883, Final residual = 0.0126562, No Iterations 8
GAMG:  Solving for p, Initial residual = 0.0367382, Final residual = 0.000269737, No Iterations 4
time step continuity errors : sum local = 0.000826092, global = -1.14347e-07, cumulative = 0.000100565
smoothSolver:  Solving for omega, Initial residual = 0.537943, Final residual = 6.53021e-06, No Iterations 1
bounding omega, min: -256.808 max: 5.48209e+08 average: 3013.47
smoothSolver:  Solving for k, Initial residual = 0.00643931, Final residual = 0.000529323, No Iterations 3
bounding k, min: -1.3498e-09 max: 718.461 average: 0.63321
ExecutionTime = 4.2 s  ClockTime = 4 s

forceCoeffs forceCoeffs1 write:
    Cm    = 0.18382
    Cd    = 0.440989
    Cl    = 0.0277717
    Cl(f) = 0.197706
    Cl(r) = -0.169934

Time = 18

smoothSolver:  Solving for Ux, Initial residual = 0.00617972, Final residual = 0.000598165, No Iterations 8
smoothSolver:  Solving for Uy, Initial residual = 0.110957, Final residual = 0.0106358, No Iterations 8
smoothSolver:  Solving for Uz, Initial residual = 0.142902, Final residual = 0.0127522, No Iterations 8
GAMG:  Solving for p, Initial residual = 0.036466, Final residual = 0.000269304, No Iterations 4
time step continuity errors : sum local = 0.000786808, global = 1.23665e-06, cumulative = 0.000101802
smoothSolver:  Solving for omega, Initial residual = 0.536093, Final residual = 2.35708e-05, No Iterations 1
smoothSolver:  Solving for k, Initial residual = 0.005967, Final residual = 0.000522984, No Iterations 3
ExecutionTime = 4.39 s  ClockTime = 4 s

forceCoeffs forceCoeffs1 write:
    Cm    = 0.172139
    Cd    = 0.423896
    Cl    = 0.0229333
    Cl(f) = 0.183605
    Cl(r) = -0.160672

Time = 19

smoothSolver:  Solving for Ux, Initial residual = 0.00569325, Final residual = 0.000459616, No Iterations 9
smoothSolver:  Solving for Uy, Initial residual = 0.10368, Final residual = 0.0102947, No Iterations 8
smoothSolver:  Solving for Uz, Initial residual = 0.130452, Final residual = 0.0123958, No Iterations 8
GAMG:  Solving for p, Initial residual = 0.0360784, Final residual = 0.000265431, No Iterations 4
time step continuity errors : sum local = 0.000744902, global = 1.5347e-06, cumulative = 0.000103336
smoothSolver:  Solving for omega, Initial residual = 0.524059, Final residual = 8.09262e-05, No Iterations 1
smoothSolver:  Solving for k, Initial residual = 0.00611851, Final residual = 0.000550246, No Iterations 3
ExecutionTime = 4.59 s  ClockTime = 5 s

forceCoeffs forceCoeffs1 write:
    Cm    = 0.172092
    Cd    = 0.425557
    Cl    = 0.0231774
    Cl(f) = 0.183681
    Cl(r) = -0.160504

Time = 20

smoothSolver:  Solving for Ux, Initial residual = 0.00551932, Final residual = 0.000452356, No Iterations 9
smoothSolver:  Solving for Uy, Initial residual = 0.0999477, Final residual = 0.00795437, No Iterations 9
smoothSolver:  Solving for Uz, Initial residual = 0.122441, Final residual = 0.0119585, No Iterations 8
GAMG:  Solving for p, Initial residual = 0.0355704, Final residual = 0.000276979, No Iterations 4
time step continuity errors : sum local = 0.000750444, global = 1.63297e-06, cumulative = 0.000104969
smoothSolver:  Solving for omega, Initial residual = 0.437925, Final residual = 0.000262038, No Iterations 1
smoothSolver:  Solving for k, Initial residual = 0.00778405, Final residual = 0.000613535, No Iterations 3
ExecutionTime = 4.78 s  ClockTime = 5 s

forceCoeffs forceCoeffs1 write:
    Cm    = 0.177102
    Cd    = 0.4315
    Cl    = 0.0276977
    Cl(f) = 0.190951
    Cl(r) = -0.163253

Time = 21

smoothSolver:  Solving for Ux, Initial residual = 0.00541551, Final residual = 0.000445991, No Iterations 9
smoothSolver:  Solving for Uy, Initial residual = 0.0972785, Final residual = 0.00789922, No Iterations 9
smoothSolver:  Solving for Uz, Initial residual = 0.117732, Final residual = 0.0115431, No Iterations 8
GAMG:  Solving for p, Initial residual = 0.0347638, Final residual = 0.00027806, No Iterations 4
time step continuity errors : sum local = 0.000730337, global = 1.10335e-06, cumulative = 0.000106073
smoothSolver:  Solving for omega, Initial residual = 0.165552, Final residual = 0.000477245, No Iterations 1
smoothSolver:  Solving for k, Initial residual = 0.00712973, Final residual = 0.000585896, No Iterations 3
ExecutionTime = 4.96 s  ClockTime = 5 s

forceCoeffs forceCoeffs1 write:
    Cm    = 0.167423
    Cd    = 0.410861
    Cl    = 0.0150283
    Cl(f) = 0.174937
    Cl(r) = -0.159909

Time = 22

smoothSolver:  Solving for Ux, Initial residual = 0.00502864, Final residual = 0.000438403, No Iterations 9
smoothSolver:  Solving for Uy, Initial residual = 0.0949801, Final residual = 0.00789354, No Iterations 9
smoothSolver:  Solving for Uz, Initial residual = 0.107579, Final residual = 0.00884806, No Iterations 9
GAMG:  Solving for p, Initial residual = 0.0338227, Final residual = 0.000272889, No Iterations 4
time step continuity errors : sum local = 0.000698834, global = 6.68615e-07, cumulative = 0.000106741
smoothSolver:  Solving for omega, Initial residual = 0.0227443, Final residual = 0.000424599, No Iterations 1
bounding omega, min: -477.418 max: 9.44907e+06 average: 1063.13
smoothSolver:  Solving for k, Initial residual = 0.0065744, Final residual = 0.000594868, No Iterations 3
ExecutionTime = 5.16 s  ClockTime = 5 s

forceCoeffs forceCoeffs1 write:
    Cm    = 0.171552
    Cd    = 0.423098
    Cl    = 0.0101911
    Cl(f) = 0.176648
    Cl(r) = -0.166457

Time = 23

smoothSolver:  Solving for Ux, Initial residual = 0.00484287, Final residual = 0.000432209, No Iterations 9
smoothSolver:  Solving for Uy, Initial residual = 0.0939225, Final residual = 0.008035, No Iterations 9
smoothSolver:  Solving for Uz, Initial residual = 0.0998484, Final residual = 0.00843916, No Iterations 9
GAMG:  Solving for p, Initial residual = 0.033022, Final residual = 0.00027694, No Iterations 4
time step continuity errors : sum local = 0.000690442, global = 1.76848e-06, cumulative = 0.00010851
smoothSolver:  Solving for omega, Initial residual = 0.00307316, Final residual = 0.000146909, No Iterations 2
smoothSolver:  Solving for k, Initial residual = 0.00828248, Final residual = 0.000662378, No Iterations 3
ExecutionTime = 5.34 s  ClockTime = 5 s

forceCoeffs forceCoeffs1 write:
    Cm    = 0.173313
    Cd    = 0.424248
    Cl    = 0.00960028
    Cl(f) = 0.178113
    Cl(r) = -0.168512

Time = 24

smoothSolver:  Solving for Ux, Initial residual = 0.00478959, Final residual = 0.000426943, No Iterations 9
smoothSolver:  Solving for Uy, Initial residual = 0.0942954, Final residual = 0.00821679, No Iterations 9
smoothSolver:  Solving for Uz, Initial residual = 0.0948472, Final residual = 0.00796872, No Iterations 9
GAMG:  Solving for p, Initial residual = 0.0321339, Final residual = 0.000270834, No Iterations 4
time step continuity errors : sum local = 0.000654453, global = 1.27826e-06, cumulative = 0.000109788
smoothSolver:  Solving for omega, Initial residual = 0.00103372, Final residual = 5.99392e-05, No Iterations 3
smoothSolver:  Solving for k, Initial residual = 0.00901387, Final residual = 0.00062019, No Iterations 3
ExecutionTime = 5.55 s  ClockTime = 6 s

forceCoeffs forceCoeffs1 write:
    Cm    = 0.158706
    Cd    = 0.394943
    Cl    = -0.003874
    Cl(f) = 0.156769
    Cl(r) = -0.160643

Time = 25

smoothSolver:  Solving for Ux, Initial residual = 0.00469367, Final residual = 0.000422195, No Iterations 9
smoothSolver:  Solving for Uy, Initial residual = 0.0938788, Final residual = 0.00832911, No Iterations 9
smoothSolver:  Solving for Uz, Initial residual = 0.0898795, Final residual = 0.0075878, No Iterations 9
GAMG:  Solving for p, Initial residual = 0.0315505, Final residual = 0.000256564, No Iterations 4
time step continuity errors : sum local = 0.000600571, global = -1.2191e-07, cumulative = 0.000109666
smoothSolver:  Solving for omega, Initial residual = 0.000844157, Final residual = 5.3904e-05, No Iterations 3
smoothSolver:  Solving for k, Initial residual = 0.0130619, Final residual = 0.000699139, No Iterations 3
ExecutionTime = 5.73 s  ClockTime = 6 s

forceCoeffs forceCoeffs1 write:
    Cm    = 0.176416
    Cd    = 0.4336
    Cl    = 0.0116423
    Cl(f) = 0.182237
    Cl(r) = -0.170594

Time = 26

smoothSolver:  Solving for Ux, Initial residual = 0.0044823, Final residual = 0.000411572, No Iterations 9
smoothSolver:  Solving for Uy, Initial residual = 0.0921474, Final residual = 0.00825606, No Iterations 9
smoothSolver:  Solving for Uz, Initial residual = 0.0837998, Final residual = 0.00721058, No Iterations 9
GAMG:  Solving for p, Initial residual = 0.0312345, Final residual = 0.000261854, No Iterations 4
time step continuity errors : sum local = 0.000588272, global = -2.96445e-06, cumulative = 0.000106702
smoothSolver:  Solving for omega, Initial residual = 0.000674873, Final residual = 4.97802e-05, No Iterations 3
smoothSolver:  Solving for k, Initial residual = 0.00903199, Final residual = 0.00063353, No Iterations 3
ExecutionTime = 5.92 s  ClockTime = 6 s

forceCoeffs forceCoeffs1 write:
    Cm    = 0.167143
    Cd    = 0.411057
    Cl    = 0.0128829
    Cl(f) = 0.173584
    Cl(r) = -0.160702

Time = 27

smoothSolver:  Solving for Ux, Initial residual = 0.00426865, Final residual = 0.000402295, No Iterations 9
smoothSolver:  Solving for Uy, Initial residual = 0.0889436, Final residual = 0.00808194, No Iterations 9
smoothSolver:  Solving for Uz, Initial residual = 0.0797836, Final residual = 0.00694916, No Iterations 9
GAMG:  Solving for p, Initial residual = 0.0307787, Final residual = 0.000257952, No Iterations 4
time step continuity errors : sum local = 0.000556075, global = -6.34693e-06, cumulative = 0.000100355
smoothSolver:  Solving for omega, Initial residual = 0.000573549, Final residual = 4.66257e-05, No Iterations 3
smoothSolver:  Solving for k, Initial residual = 0.00682019, Final residual = 0.000601929, No Iterations 3
ExecutionTime = 6.11 s  ClockTime = 6 s

forceCoeffs forceCoeffs1 write:
    Cm    = 0.168405
    Cd    = 0.414489
    Cl    = 0.0186684
    Cl(f) = 0.177739
    Cl(r) = -0.159071

Time = 28

smoothSolver:  Solving for Ux, Initial residual = 0.00405091, Final residual = 0.000391801, No Iterations 9
smoothSolver:  Solving for Uy, Initial residual = 0.0841448, Final residual = 0.00787279, No Iterations 9
smoothSolver:  Solving for Uz, Initial residual = 0.0752258, Final residual = 0.00684978, No Iterations 9
GAMG:  Solving for p, Initial residual = 0.0304164, Final residual = 0.000254369, No Iterations 4
time step continuity errors : sum local = 0.000531395, global = -1.0186e-05, cumulative = 9.01688e-05
smoothSolver:  Solving for omega, Initial residual = 0.00055969, Final residual = 4.4171e-05, No Iterations 3
smoothSolver:  Solving for k, Initial residual = 0.00738554, Final residual = 0.000601396, No Iterations 3
ExecutionTime = 6.31 s  ClockTime = 6 s

forceCoeffs forceCoeffs1 write:
    Cm    = 0.17115
    Cd    = 0.416903
    Cl    = 0.0295432
    Cl(f) = 0.185922
    Cl(r) = -0.156379

Time = 29

smoothSolver:  Solving for Ux, Initial residual = 0.0040061, Final residual = 0.00038167, No Iterations 9
smoothSolver:  Solving for Uy, Initial residual = 0.0814478, Final residual = 0.00761928, No Iterations 9
smoothSolver:  Solving for Uz, Initial residual = 0.0747998, Final residual = 0.00671906, No Iterations 9
GAMG:  Solving for p, Initial residual = 0.0296279, Final residual = 0.000262737, No Iterations 4
time step continuity errors : sum local = 0.000531611, global = -1.22953e-05, cumulative = 7.78734e-05
smoothSolver:  Solving for omega, Initial residual = 0.000556361, Final residual = 4.22601e-05, No Iterations 3
smoothSolver:  Solving for k, Initial residual = 0.00701177, Final residual = 0.000609001, No Iterations 3
ExecutionTime = 6.5 s  ClockTime = 6 s

forceCoeffs forceCoeffs1 write:
    Cm    = 0.174408
    Cd    = 0.418106
    Cl    = 0.0391593
    Cl(f) = 0.193988
    Cl(r) = -0.154828

Time = 30

smoothSolver:  Solving for Ux, Initial residual = 0.00376348, Final residual = 0.000369287, No Iterations 9
smoothSolver:  Solving for Uy, Initial residual = 0.0776218, Final residual = 0.00743337, No Iterations 9
smoothSolver:  Solving for Uz, Initial residual = 0.0705039, Final residual = 0.00658398, No Iterations 9
GAMG:  Solving for p, Initial residual = 0.0288827, Final residual = 0.000259768, No Iterations 4
time step continuity errors : sum local = 0.000514434, global = -1.33032e-05, cumulative = 6.45703e-05
smoothSolver:  Solving for omega, Initial residual = 0.000481793, Final residual = 4.08443e-05, No Iterations 3
smoothSolver:  Solving for k, Initial residual = 0.00595416, Final residual = 0.000587835, No Iterations 3
ExecutionTime = 6.69 s  ClockTime = 7 s

forceCoeffs forceCoeffs1 write:
    Cm    = 0.175668
    Cd    = 0.416247
    Cl    = 0.0428607
    Cl(f) = 0.197098
    Cl(r) = -0.154238

Time = 31

smoothSolver:  Solving for Ux, Initial residual = 0.00359343, Final residual = 0.000355891, No Iterations 9
smoothSolver:  Solving for Uy, Initial residual = 0.0755395, Final residual = 0.00728867, No Iterations 9
smoothSolver:  Solving for Uz, Initial residual = 0.0678283, Final residual = 0.00640936, No Iterations 9
GAMG:  Solving for p, Initial residual = 0.0281354, Final residual = 0.000246653, No Iterations 4
time step continuity errors : sum local = 0.000479955, global = -1.30263e-05, cumulative = 5.15439e-05
smoothSolver:  Solving for omega, Initial residual = 0.000458156, Final residual = 3.98505e-05, No Iterations 3
smoothSolver:  Solving for k, Initial residual = 0.00567529, Final residual = 0.000284062, No Iterations 4
ExecutionTime = 6.88 s  ClockTime = 7 s

forceCoeffs forceCoeffs1 write:
    Cm    = 0.175815
    Cd    = 0.409803
    Cl    = 0.0450548
    Cl(f) = 0.198343
    Cl(r) = -0.153288

Time = 32

smoothSolver:  Solving for Ux, Initial residual = 0.00345282, Final residual = 0.00034068, No Iterations 9
smoothSolver:  Solving for Uy, Initial residual = 0.073902, Final residual = 0.00712023, No Iterations 9
smoothSolver:  Solving for Uz, Initial residual = 0.0651424, Final residual = 0.00614249, No Iterations 9
GAMG:  Solving for p, Initial residual = 0.0274745, Final residual = 0.000232676, No Iterations 4
time step continuity errors : sum local = 0.000445854, global = -1.34163e-05, cumulative = 3.81276e-05
smoothSolver:  Solving for omega, Initial residual = 0.000435646, Final residual = 3.88353e-05, No Iterations 3
bounding omega, min: -228.185 max: 9.44907e+06 average: 940.955
smoothSolver:  Solving for k, Initial residual = 0.0054151, Final residual = 0.000285607, No Iterations 4
ExecutionTime = 7.08 s  ClockTime = 7 s

forceCoeffs forceCoeffs1 write:
    Cm    = 0.176583
    Cd    = 0.406361
    Cl    = 0.0460292
    Cl(f) = 0.199598
    Cl(r) = -0.153569

Time = 33

smoothSolver:  Solving for Ux, Initial residual = 0.00330619, Final residual = 0.000326912, No Iterations 9
smoothSolver:  Solving for Uy, Initial residual = 0.0723642, Final residual = 0.00693787, No Iterations 9
smoothSolver:  Solving for Uz, Initial residual = 0.061941, Final residual = 0.00583967, No Iterations 9
GAMG:  Solving for p, Initial residual = 0.0269308, Final residual = 0.000231701, No Iterations 4
time step continuity errors : sum local = 0.000437435, global = -1.37517e-05, cumulative = 2.43759e-05
smoothSolver:  Solving for omega, Initial residual = 0.000417846, Final residual = 3.77643e-05, No Iterations 3
bounding omega, min: -55.0457 max: 9.44907e+06 average: 934.162
smoothSolver:  Solving for k, Initial residual = 0.00526775, Final residual = 0.000286429, No Iterations 4
ExecutionTime = 7.26 s  ClockTime = 7 s

forceCoeffs forceCoeffs1 write:
    Cm    = 0.178138
    Cd    = 0.406067
    Cl    = 0.0480855
    Cl(f) = 0.202181
    Cl(r) = -0.154095

Time = 34

smoothSolver:  Solving for Ux, Initial residual = 0.00317422, Final residual = 0.000316218, No Iterations 9
smoothSolver:  Solving for Uy, Initial residual = 0.0706632, Final residual = 0.00676637, No Iterations 9
smoothSolver:  Solving for Uz, Initial residual = 0.0587039, Final residual = 0.00556376, No Iterations 9
GAMG:  Solving for p, Initial residual = 0.0264375, Final residual = 0.000227524, No Iterations 4
time step continuity errors : sum local = 0.00042226, global = -1.06289e-05, cumulative = 1.3747e-05
smoothSolver:  Solving for omega, Initial residual = 0.000403331, Final residual = 3.66407e-05, No Iterations 3
bounding omega, min: -59.1235 max: 9.44907e+06 average: 929.849
smoothSolver:  Solving for k, Initial residual = 0.00515293, Final residual = 0.000285326, No Iterations 4
ExecutionTime = 7.46 s  ClockTime = 7 s

forceCoeffs forceCoeffs1 write:
    Cm    = 0.1784
    Cd    = 0.406495
    Cl    = 0.0500644
    Cl(f) = 0.203432
    Cl(r) = -0.153367

Time = 35

smoothSolver:  Solving for Ux, Initial residual = 0.00307779, Final residual = 0.000244221, No Iterations 10
smoothSolver:  Solving for Uy, Initial residual = 0.0687551, Final residual = 0.00661276, No Iterations 9
smoothSolver:  Solving for Uz, Initial residual = 0.0557161, Final residual = 0.00531617, No Iterations 9
GAMG:  Solving for p, Initial residual = 0.0258481, Final residual = 0.000223913, No Iterations 4
time step continuity errors : sum local = 0.000406616, global = -6.95541e-06, cumulative = 6.79155e-06
smoothSolver:  Solving for omega, Initial residual = 0.000391059, Final residual = 3.56694e-05, No Iterations 3
bounding omega, min: -281.568 max: 9.44907e+06 average: 926.017
smoothSolver:  Solving for k, Initial residual = 0.00510597, Final residual = 0.0002839, No Iterations 4
ExecutionTime = 7.64 s  ClockTime = 8 s

forceCoeffs forceCoeffs1 write:
    Cm    = 0.178812
    Cd    = 0.409122
    Cl    = 0.0527833
    Cl(f) = 0.205204
    Cl(r) = -0.15242

Time = 36

smoothSolver:  Solving for Ux, Initial residual = 0.00297286, Final residual = 0.0002391, No Iterations 10
smoothSolver:  Solving for Uy, Initial residual = 0.0670148, Final residual = 0.00649503, No Iterations 9
smoothSolver:  Solving for Uz, Initial residual = 0.0526557, Final residual = 0.00511072, No Iterations 9
GAMG:  Solving for p, Initial residual = 0.0253154, Final residual = 0.000220301, No Iterations 4
time step continuity errors : sum local = 0.000391124, global = -4.16308e-06, cumulative = 2.62847e-06
smoothSolver:  Solving for omega, Initial residual = 0.000377692, Final residual = 3.46756e-05, No Iterations 3
bounding omega, min: -211.641 max: 9.44907e+06 average: 922.875
smoothSolver:  Solving for k, Initial residual = 0.005028, Final residual = 0.000281203, No Iterations 4
ExecutionTime = 7.83 s  ClockTime = 8 s

forceCoeffs forceCoeffs1 write:
    Cm    = 0.177142
    Cd    = 0.409186
    Cl    = 0.054608
    Cl(f) = 0.204446
    Cl(r) = -0.149838

Time = 37

smoothSolver:  Solving for Ux, Initial residual = 0.00288777, Final residual = 0.00023486, No Iterations 10
smoothSolver:  Solving for Uy, Initial residual = 0.0645357, Final residual = 0.00635164, No Iterations 9
smoothSolver:  Solving for Uz, Initial residual = 0.0497455, Final residual = 0.00491833, No Iterations 9
GAMG:  Solving for p, Initial residual = 0.0247587, Final residual = 0.000215265, No Iterations 4
time step continuity errors : sum local = 0.000374315, global = -2.97908e-06, cumulative = -3.50613e-07
smoothSolver:  Solving for omega, Initial residual = 0.000366358, Final residual = 3.37937e-05, No Iterations 3
smoothSolver:  Solving for k, Initial residual = 0.00499038, Final residual = 0.000279521, No Iterations 4
ExecutionTime = 8.03 s  ClockTime = 8 s

forceCoeffs forceCoeffs1 write:
    Cm    = 0.1755
    Cd    = 0.41003
    Cl    = 0.0579224
    Cl(f) = 0.204461
    Cl(r) = -0.146539

Time = 38

smoothSolver:  Solving for Ux, Initial residual = 0.002806, Final residual = 0.000230573, No Iterations 10
smoothSolver:  Solving for Uy, Initial residual = 0.0615727, Final residual = 0.00613858, No Iterations 9
smoothSolver:  Solving for Uz, Initial residual = 0.0474171, Final residual = 0.00474116, No Iterations 9
GAMG:  Solving for p, Initial residual = 0.0240463, Final residual = 0.000209226, No Iterations 4
time step continuity errors : sum local = 0.000357441, global = -2.73135e-06, cumulative = -3.08196e-06
smoothSolver:  Solving for omega, Initial residual = 0.00035663, Final residual = 3.28904e-05, No Iterations 3
bounding omega, min: -395.625 max: 9.44907e+06 average: 918.874
smoothSolver:  Solving for k, Initial residual = 0.00487234, Final residual = 0.000279138, No Iterations 4
ExecutionTime = 8.21 s  ClockTime = 8 s

forceCoeffs forceCoeffs1 write:
    Cm    = 0.172959
    Cd    = 0.40984
    Cl    = 0.0612377
    Cl(f) = 0.203578
    Cl(r) = -0.142341

Time = 39

smoothSolver:  Solving for Ux, Initial residual = 0.00271562, Final residual = 0.00022498, No Iterations 10
smoothSolver:  Solving for Uy, Initial residual = 0.0582917, Final residual = 0.00463797, No Iterations 10
smoothSolver:  Solving for Uz, Initial residual = 0.0453825, Final residual = 0.00363154, No Iterations 10
GAMG:  Solving for p, Initial residual = 0.0232367, Final residual = 0.000200968, No Iterations 4
time step continuity errors : sum local = 0.000337747, global = -3.09649e-06, cumulative = -6.17845e-06
smoothSolver:  Solving for omega, Initial residual = 0.000340648, Final residual = 3.19797e-05, No Iterations 3
bounding omega, min: -360.677 max: 9.44907e+06 average: 917.238
smoothSolver:  Solving for k, Initial residual = 0.00476735, Final residual = 0.000277049, No Iterations 4
ExecutionTime = 8.4 s  ClockTime = 8 s

forceCoeffs forceCoeffs1 write:
    Cm    = 0.17049
    Cd    = 0.409708
    Cl    = 0.0661325
    Cl(f) = 0.203556
    Cl(r) = -0.137423

Time = 40

smoothSolver:  Solving for Ux, Initial residual = 0.00262416, Final residual = 0.000219122, No Iterations 10
smoothSolver:  Solving for Uy, Initial residual = 0.054792, Final residual = 0.00439788, No Iterations 10
smoothSolver:  Solving for Uz, Initial residual = 0.0432692, Final residual = 0.00349644, No Iterations 10
GAMG:  Solving for p, Initial residual = 0.022426, Final residual = 0.000191833, No Iterations 4
time step continuity errors : sum local = 0.000318087, global = -3.47115e-06, cumulative = -9.64961e-06
smoothSolver:  Solving for omega, Initial residual = 0.000327864, Final residual = 3.09114e-05, No Iterations 3
bounding omega, min: -146.153 max: 9.44907e+06 average: 917.188
smoothSolver:  Solving for k, Initial residual = 0.00463708, Final residual = 0.000271185, No Iterations 4
ExecutionTime = 8.59 s  ClockTime = 9 s

forceCoeffs forceCoeffs1 write:
    Cm    = 0.167416
    Cd    = 0.408463
    Cl    = 0.070166
    Cl(f) = 0.202499
    Cl(r) = -0.132333

Time = 41

smoothSolver:  Solving for Ux, Initial residual = 0.00255002, Final residual = 0.000213528, No Iterations 10
smoothSolver:  Solving for Uy, Initial residual = 0.0519821, Final residual = 0.00418624, No Iterations 10
smoothSolver:  Solving for Uz, Initial residual = 0.0416788, Final residual = 0.00338262, No Iterations 10
GAMG:  Solving for p, Initial residual = 0.0216717, Final residual = 0.000183682, No Iterations 4
time step continuity errors : sum local = 0.000300677, global = -3.93172e-06, cumulative = -1.35813e-05
smoothSolver:  Solving for omega, Initial residual = 0.000316375, Final residual = 2.97793e-05, No Iterations 3
smoothSolver:  Solving for k, Initial residual = 0.00454085, Final residual = 0.000265242, No Iterations 4
ExecutionTime = 8.78 s  ClockTime = 9 s

forceCoeffs forceCoeffs1 write:
    Cm    = 0.165349
    Cd    = 0.408424
    Cl    = 0.074474
    Cl(f) = 0.202586
    Cl(r) = -0.128112

Time = 42

smoothSolver:  Solving for Ux, Initial residual = 0.00248113, Final residual = 0.000208925, No Iterations 10
smoothSolver:  Solving for Uy, Initial residual = 0.0494706, Final residual = 0.00400624, No Iterations 10
smoothSolver:  Solving for Uz, Initial residual = 0.0403496, Final residual = 0.0032759, No Iterations 10
GAMG:  Solving for p, Initial residual = 0.0212219, Final residual = 0.000183509, No Iterations 4
time step continuity errors : sum local = 0.000297538, global = -4.63562e-06, cumulative = -1.82169e-05
smoothSolver:  Solving for omega, Initial residual = 0.000304156, Final residual = 2.86085e-05, No Iterations 3
bounding omega, min: -157.325 max: 9.44907e+06 average: 917.596
smoothSolver:  Solving for k, Initial residual = 0.00444362, Final residual = 0.00026084, No Iterations 4
ExecutionTime = 8.97 s  ClockTime = 9 s

forceCoeffs forceCoeffs1 write:
    Cm    = 0.163925
    Cd    = 0.408477
    Cl    = 0.0780527
    Cl(f) = 0.202952
    Cl(r) = -0.124899

Time = 43

smoothSolver:  Solving for Ux, Initial residual = 0.00242765, Final residual = 0.000205204, No Iterations 10
smoothSolver:  Solving for Uy, Initial residual = 0.0474375, Final residual = 0.00385538, No Iterations 10
smoothSolver:  Solving for Uz, Initial residual = 0.0393696, Final residual = 0.00317489, No Iterations 10
GAMG:  Solving for p, Initial residual = 0.020816, Final residual = 0.000181046, No Iterations 4
time step continuity errors : sum local = 0.000290742, global = -4.59329e-06, cumulative = -2.28102e-05
smoothSolver:  Solving for omega, Initial residual = 0.000293578, Final residual = 2.74909e-05, No Iterations 3
bounding omega, min: -51.6343 max: 9.44907e+06 average: 917.994
smoothSolver:  Solving for k, Initial residual = 0.00436069, Final residual = 0.000256825, No Iterations 4
ExecutionTime = 9.16 s  ClockTime = 9 s

forceCoeffs forceCoeffs1 write:
    Cm    = 0.162715
    Cd    = 0.40797
    Cl    = 0.0805936
    Cl(f) = 0.203012
    Cl(r) = -0.122418

Time = 44

smoothSolver:  Solving for Ux, Initial residual = 0.00238074, Final residual = 0.000202468, No Iterations 10
smoothSolver:  Solving for Uy, Initial residual = 0.0458167, Final residual = 0.00372804, No Iterations 10
smoothSolver:  Solving for Uz, Initial residual = 0.0383328, Final residual = 0.00307457, No Iterations 10
GAMG:  Solving for p, Initial residual = 0.020494, Final residual = 0.000177111, No Iterations 4
time step continuity errors : sum local = 0.000282542, global = -4.12607e-06, cumulative = -2.69363e-05
smoothSolver:  Solving for omega, Initial residual = 0.000281661, Final residual = 2.65183e-05, No Iterations 3
bounding omega, min: -97.1427 max: 9.44907e+06 average: 918.685
smoothSolver:  Solving for k, Initial residual = 0.00427295, Final residual = 0.000251203, No Iterations 4
ExecutionTime = 9.35 s  ClockTime = 9 s

forceCoeffs forceCoeffs1 write:
    Cm    = 0.1618
    Cd    = 0.407216
    Cl    = 0.0809597
    Cl(f) = 0.20228
    Cl(r) = -0.12132

Time = 45

smoothSolver:  Solving for Ux, Initial residual = 0.00233576, Final residual = 0.000200155, No Iterations 10
smoothSolver:  Solving for Uy, Initial residual = 0.0445562, Final residual = 0.0036033, No Iterations 10
smoothSolver:  Solving for Uz, Initial residual = 0.0374341, Final residual = 0.00298258, No Iterations 10
GAMG:  Solving for p, Initial residual = 0.0201004, Final residual = 0.000173645, No Iterations 4
time step continuity errors : sum local = 0.000275626, global = -2.82974e-06, cumulative = -2.9766e-05
smoothSolver:  Solving for omega, Initial residual = 0.000271679, Final residual = 2.56388e-05, No Iterations 3
bounding omega, min: -66.443 max: 9.44907e+06 average: 919.464
smoothSolver:  Solving for k, Initial residual = 0.00418854, Final residual = 0.000244735, No Iterations 4
ExecutionTime = 9.54 s  ClockTime = 10 s

forceCoeffs forceCoeffs1 write:
    Cm    = 0.160949
    Cd    = 0.405867
    Cl    = 0.0803052
    Cl(f) = 0.201101
    Cl(r) = -0.120796

Time = 46

smoothSolver:  Solving for Ux, Initial residual = 0.00228414, Final residual = 0.000197124, No Iterations 10
smoothSolver:  Solving for Uy, Initial residual = 0.0434056, Final residual = 0.00348213, No Iterations 10
smoothSolver:  Solving for Uz, Initial residual = 0.0364448, Final residual = 0.00289661, No Iterations 10
GAMG:  Solving for p, Initial residual = 0.019646, Final residual = 0.000171119, No Iterations 4
time step continuity errors : sum local = 0.000270933, global = -2.25232e-06, cumulative = -3.20184e-05
smoothSolver:  Solving for omega, Initial residual = 0.000263973, Final residual = 2.47953e-05, No Iterations 3
bounding omega, min: -52.2333 max: 9.44907e+06 average: 920.914
smoothSolver:  Solving for k, Initial residual = 0.00410169, Final residual = 0.000237323, No Iterations 4
ExecutionTime = 9.72 s  ClockTime = 10 s

forceCoeffs forceCoeffs1 write:
    Cm    = 0.160501
    Cd    = 0.404849
    Cl    = 0.0790146
    Cl(f) = 0.200009
    Cl(r) = -0.120994

Time = 47

smoothSolver:  Solving for Ux, Initial residual = 0.0022358, Final residual = 0.000193761, No Iterations 10
smoothSolver:  Solving for Uy, Initial residual = 0.0422222, Final residual = 0.00336685, No Iterations 10
smoothSolver:  Solving for Uz, Initial residual = 0.0356767, Final residual = 0.00282338, No Iterations 10
GAMG:  Solving for p, Initial residual = 0.0191937, Final residual = 0.000170261, No Iterations 4
time step continuity errors : sum local = 0.000269276, global = -2.46181e-06, cumulative = -3.44802e-05
smoothSolver:  Solving for omega, Initial residual = 0.000256719, Final residual = 2.40007e-05, No Iterations 3
bounding omega, min: -148.663 max: 9.44907e+06 average: 922.13
smoothSolver:  Solving for k, Initial residual = 0.00399098, Final residual = 0.000229419, No Iterations 4
ExecutionTime = 9.91 s  ClockTime = 10 s

forceCoeffs forceCoeffs1 write:
    Cm    = 0.159757
    Cd    = 0.403239
    Cl    = 0.0779831
    Cl(f) = 0.198749
    Cl(r) = -0.120766

Time = 48

smoothSolver:  Solving for Ux, Initial residual = 0.0021885, Final residual = 0.000190058, No Iterations 10
smoothSolver:  Solving for Uy, Initial residual = 0.0412965, Final residual = 0.00326296, No Iterations 10
smoothSolver:  Solving for Uz, Initial residual = 0.0349253, Final residual = 0.00276188, No Iterations 10
GAMG:  Solving for p, Initial residual = 0.018832, Final residual = 0.000166676, No Iterations 4
time step continuity errors : sum local = 0.00026359, global = -3.48117e-06, cumulative = -3.79613e-05
smoothSolver:  Solving for omega, Initial residual = 0.000249217, Final residual = 2.32998e-05, No Iterations 3
bounding omega, min: -143.57 max: 9.44907e+06 average: 923.897
smoothSolver:  Solving for k, Initial residual = 0.00387835, Final residual = 0.000222232, No Iterations 4
ExecutionTime = 10.1 s  ClockTime = 10 s

forceCoeffs forceCoeffs1 write:
    Cm    = 0.159287
    Cd    = 0.402378
    Cl    = 0.0770491
    Cl(f) = 0.197811
    Cl(r) = -0.120762

Time = 49

smoothSolver:  Solving for Ux, Initial residual = 0.00214764, Final residual = 0.000186265, No Iterations 10
smoothSolver:  Solving for Uy, Initial residual = 0.0406849, Final residual = 0.00404901, No Iterations 9
smoothSolver:  Solving for Uz, Initial residual = 0.0345121, Final residual = 0.00273295, No Iterations 10
GAMG:  Solving for p, Initial residual = 0.0184945, Final residual = 0.000161234, No Iterations 4
time step continuity errors : sum local = 0.000255111, global = -3.97433e-06, cumulative = -4.19357e-05
smoothSolver:  Solving for omega, Initial residual = 0.000242949, Final residual = 2.27541e-05, No Iterations 3
bounding omega, min: -220.352 max: 9.44907e+06 average: 924.667
smoothSolver:  Solving for k, Initial residual = 0.00378373, Final residual = 0.0002161, No Iterations 4
ExecutionTime = 10.29 s  ClockTime = 10 s

forceCoeffs forceCoeffs1 write:
    Cm    = 0.158792
    Cd    = 0.401702
    Cl    = 0.0766893
    Cl(f) = 0.197136
    Cl(r) = -0.120447

Time = 50

smoothSolver:  Solving for Ux, Initial residual = 0.00211036, Final residual = 0.000182727, No Iterations 10
smoothSolver:  Solving for Uy, Initial residual = 0.0405997, Final residual = 0.00404214, No Iterations 9
smoothSolver:  Solving for Uz, Initial residual = 0.0342834, Final residual = 0.0027193, No Iterations 10
GAMG:  Solving for p, Initial residual = 0.018094, Final residual = 0.000151907, No Iterations 4
time step continuity errors : sum local = 0.000240457, global = -4.327e-06, cumulative = -4.62627e-05
smoothSolver:  Solving for omega, Initial residual = 0.000238191, Final residual = 2.23316e-05, No Iterations 3
bounding omega, min: -122.918 max: 9.44907e+06 average: 925.757
smoothSolver:  Solving for k, Initial residual = 0.00372286, Final residual = 0.000212242, No Iterations 4
ExecutionTime = 10.48 s  ClockTime = 10 s

forceCoeffs forceCoeffs1 write:
    Cm    = 0.158581
    Cd    = 0.401497
    Cl    = 0.0764445
    Cl(f) = 0.196803
    Cl(r) = -0.120358

Time = 51

smoothSolver:  Solving for Ux, Initial residual = 0.00207839, Final residual = 0.000180189, No Iterations 10
smoothSolver:  Solving for Uy, Initial residual = 0.0406651, Final residual = 0.00405919, No Iterations 9
smoothSolver:  Solving for Uz, Initial residual = 0.0342954, Final residual = 0.00271668, No Iterations 10
GAMG:  Solving for p, Initial residual = 0.0176097, Final residual = 0.000147838, No Iterations 4
time step continuity errors : sum local = 0.00023377, global = -4.14952e-06, cumulative = -5.04122e-05
smoothSolver:  Solving for omega, Initial residual = 0.000234899, Final residual = 2.19533e-05, No Iterations 3
bounding omega, min: -2.47987 max: 9.44907e+06 average: 926.782
smoothSolver:  Solving for k, Initial residual = 0.00368256, Final residual = 0.000209116, No Iterations 4
ExecutionTime = 10.67 s  ClockTime = 11 s

forceCoeffs forceCoeffs1 write:
    Cm    = 0.158644
    Cd    = 0.401553
    Cl    = 0.0763239
    Cl(f) = 0.196806
    Cl(r) = -0.120482

Time = 52

smoothSolver:  Solving for Ux, Initial residual = 0.0020525, Final residual = 0.000178446, No Iterations 10
smoothSolver:  Solving for Uy, Initial residual = 0.0409499, Final residual = 0.00324259, No Iterations 10
smoothSolver:  Solving for Uz, Initial residual = 0.0343458, Final residual = 0.00272921, No Iterations 10
GAMG:  Solving for p, Initial residual = 0.0172252, Final residual = 0.000145202, No Iterations 4
time step continuity errors : sum local = 0.000229055, global = -3.73613e-06, cumulative = -5.41483e-05
smoothSolver:  Solving for omega, Initial residual = 0.000231635, Final residual = 2.16282e-05, No Iterations 3
smoothSolver:  Solving for k, Initial residual = 0.00364475, Final residual = 0.000206124, No Iterations 4
ExecutionTime = 10.87 s  ClockTime = 11 s

forceCoeffs forceCoeffs1 write:
    Cm    = 0.159113
    Cd    = 0.402026
    Cl    = 0.0764333
    Cl(f) = 0.197329
    Cl(r) = -0.120896

Time = 53

smoothSolver:  Solving for Ux, Initial residual = 0.00203046, Final residual = 0.000176784, No Iterations 10
smoothSolver:  Solving for Uy, Initial residual = 0.0408623, Final residual = 0.00327392, No Iterations 10
smoothSolver:  Solving for Uz, Initial residual = 0.0345071, Final residual = 0.00276666, No Iterations 10
GAMG:  Solving for p, Initial residual = 0.0168667, Final residual = 0.000142975, No Iterations 4
time step continuity errors : sum local = 0.000224587, global = -3.28168e-06, cumulative = -5.743e-05
smoothSolver:  Solving for omega, Initial residual = 0.000228253, Final residual = 2.12929e-05, No Iterations 3
bounding omega, min: -143.625 max: 9.44907e+06 average: 928.252
smoothSolver:  Solving for k, Initial residual = 0.00360284, Final residual = 0.000203126, No Iterations 4
ExecutionTime = 11.06 s  ClockTime = 11 s

forceCoeffs forceCoeffs1 write:
    Cm    = 0.159806
    Cd    = 0.402706
    Cl    = 0.0768045
    Cl(f) = 0.198209
    Cl(r) = -0.121404

Time = 54

smoothSolver:  Solving for Ux, Initial residual = 0.00200603, Final residual = 0.000174693, No Iterations 10
smoothSolver:  Solving for Uy, Initial residual = 0.040818, Final residual = 0.00331005, No Iterations 10
smoothSolver:  Solving for Uz, Initial residual = 0.0344679, Final residual = 0.00278723, No Iterations 10
GAMG:  Solving for p, Initial residual = 0.0165283, Final residual = 0.000137963, No Iterations 4
time step continuity errors : sum local = 0.000215812, global = -2.89531e-06, cumulative = -6.03253e-05
smoothSolver:  Solving for omega, Initial residual = 0.000224135, Final residual = 2.08827e-05, No Iterations 3
smoothSolver:  Solving for k, Initial residual = 0.0035527, Final residual = 0.000200678, No Iterations 4
ExecutionTime = 11.24 s  ClockTime = 11 s

forceCoeffs forceCoeffs1 write:
    Cm    = 0.160762
    Cd    = 0.403842
    Cl    = 0.0773411
    Cl(f) = 0.199432
    Cl(r) = -0.122091

Time = 55

smoothSolver:  Solving for Ux, Initial residual = 0.00197544, Final residual = 0.000172445, No Iterations 10
smoothSolver:  Solving for Uy, Initial residual = 0.0404944, Final residual = 0.0033121, No Iterations 10
smoothSolver:  Solving for Uz, Initial residual = 0.0342172, Final residual = 0.00277905, No Iterations 10
GAMG:  Solving for p, Initial residual = 0.0161594, Final residual = 0.000135796, No Iterations 4
time step continuity errors : sum local = 0.000211687, global = -2.67879e-06, cumulative = -6.30041e-05
smoothSolver:  Solving for omega, Initial residual = 0.000219817, Final residual = 2.04866e-05, No Iterations 3
bounding omega, min: -292.927 max: 9.44907e+06 average: 929.145
smoothSolver:  Solving for k, Initial residual = 0.00348194, Final residual = 0.000197466, No Iterations 4
ExecutionTime = 11.44 s  ClockTime = 11 s

forceCoeffs forceCoeffs1 write:
    Cm    = 0.161271
    Cd    = 0.404374
    Cl    = 0.0777068
    Cl(f) = 0.200125
    Cl(r) = -0.122418

Time = 56

smoothSolver:  Solving for Ux, Initial residual = 0.00193787, Final residual = 0.000170067, No Iterations 10
smoothSolver:  Solving for Uy, Initial residual = 0.0400936, Final residual = 0.00327969, No Iterations 10
smoothSolver:  Solving for Uz, Initial residual = 0.033668, Final residual = 0.00273855, No Iterations 10
GAMG:  Solving for p, Initial residual = 0.0157581, Final residual = 0.000137158, No Iterations 4
time step continuity errors : sum local = 0.000213356, global = -2.31373e-06, cumulative = -6.53178e-05
smoothSolver:  Solving for omega, Initial residual = 0.000215292, Final residual = 2.00328e-05, No Iterations 3
bounding omega, min: -24.6006 max: 9.44907e+06 average: 929.509
smoothSolver:  Solving for k, Initial residual = 0.00339562, Final residual = 0.000192666, No Iterations 4
ExecutionTime = 11.64 s  ClockTime = 12 s

forceCoeffs forceCoeffs1 write:
    Cm    = 0.161648
    Cd    = 0.404936
    Cl    = 0.0779696
    Cl(f) = 0.200632
    Cl(r) = -0.122663

Time = 57

smoothSolver:  Solving for Ux, Initial residual = 0.00189877, Final residual = 0.000167971, No Iterations 10
smoothSolver:  Solving for Uy, Initial residual = 0.0395662, Final residual = 0.00322592, No Iterations 10
smoothSolver:  Solving for Uz, Initial residual = 0.0330094, Final residual = 0.00267135, No Iterations 10
GAMG:  Solving for p, Initial residual = 0.0153713, Final residual = 0.000138784, No Iterations 4
time step continuity errors : sum local = 0.000215502, global = -1.9263e-06, cumulative = -6.72441e-05
smoothSolver:  Solving for omega, Initial residual = 0.000209979, Final residual = 1.95364e-05, No Iterations 3
bounding omega, min: -19.8617 max: 9.44907e+06 average: 929.729
smoothSolver:  Solving for k, Initial residual = 0.00329568, Final residual = 0.000186802, No Iterations 4
ExecutionTime = 11.81 s  ClockTime = 12 s

forceCoeffs forceCoeffs1 write:
    Cm    = 0.161303
    Cd    = 0.40444
    Cl    = 0.078134
    Cl(f) = 0.20037
    Cl(r) = -0.122236

Time = 58

smoothSolver:  Solving for Ux, Initial residual = 0.00185711, Final residual = 0.000165413, No Iterations 10
smoothSolver:  Solving for Uy, Initial residual = 0.0388454, Final residual = 0.00314701, No Iterations 10
smoothSolver:  Solving for Uz, Initial residual = 0.0322309, Final residual = 0.00258574, No Iterations 10
GAMG:  Solving for p, Initial residual = 0.0149926, Final residual = 0.000136341, No Iterations 4
time step continuity errors : sum local = 0.000211494, global = -8.59563e-07, cumulative = -6.81037e-05
smoothSolver:  Solving for omega, Initial residual = 0.000204953, Final residual = 1.90256e-05, No Iterations 3
bounding omega, min: -37.1324 max: 9.44907e+06 average: 930.434
smoothSolver:  Solving for k, Initial residual = 0.00319059, Final residual = 0.000179782, No Iterations 4
ExecutionTime = 12 s  ClockTime = 12 s

forceCoeffs forceCoeffs1 write:
    Cm    = 0.160575
    Cd    = 0.403706
    Cl    = 0.0784258
    Cl(f) = 0.199788
    Cl(r) = -0.121363

Time = 59

smoothSolver:  Solving for Ux, Initial residual = 0.00181466, Final residual = 0.000161866, No Iterations 10
smoothSolver:  Solving for Uy, Initial residual = 0.0378971, Final residual = 0.00305552, No Iterations 10
smoothSolver:  Solving for Uz, Initial residual = 0.031388, Final residual = 0.0024983, No Iterations 10
GAMG:  Solving for p, Initial residual = 0.0147165, Final residual = 0.000130203, No Iterations 4
time step continuity errors : sum local = 0.000201699, global = 2.74762e-07, cumulative = -6.78289e-05
smoothSolver:  Solving for omega, Initial residual = 0.000200039, Final residual = 1.85164e-05, No Iterations 3
bounding omega, min: -68.4701 max: 9.44907e+06 average: 930.505
smoothSolver:  Solving for k, Initial residual = 0.00309368, Final residual = 0.000172748, No Iterations 4
ExecutionTime = 12.17 s  ClockTime = 12 s

forceCoeffs forceCoeffs1 write:
    Cm    = 0.159113
    Cd    = 0.402155
    Cl    = 0.078813
    Cl(f) = 0.19852
    Cl(r) = -0.119706

Time = 60

smoothSolver:  Solving for Ux, Initial residual = 0.00177338, Final residual = 0.000157592, No Iterations 10
smoothSolver:  Solving for Uy, Initial residual = 0.036811, Final residual = 0.00295883, No Iterations 10
smoothSolver:  Solving for Uz, Initial residual = 0.0303937, Final residual = 0.00242304, No Iterations 10
GAMG:  Solving for p, Initial residual = 0.0145152, Final residual = 0.000125148, No Iterations 4
time step continuity errors : sum local = 0.00019367, global = 1.0017e-06, cumulative = -6.68272e-05
smoothSolver:  Solving for omega, Initial residual = 0.000195539, Final residual = 1.80483e-05, No Iterations 3
bounding omega, min: -107.353 max: 9.44907e+06 average: 931.197
smoothSolver:  Solving for k, Initial residual = 0.00300263, Final residual = 0.000167023, No Iterations 4
ExecutionTime = 12.36 s  ClockTime = 12 s

forceCoeffs forceCoeffs1 write:
    Cm    = 0.157576
    Cd    = 0.401176
    Cl    = 0.0792344
    Cl(f) = 0.197193
    Cl(r) = -0.117959

Time = 61

smoothSolver:  Solving for Ux, Initial residual = 0.00173265, Final residual = 0.000153044, No Iterations 10
smoothSolver:  Solving for Uy, Initial residual = 0.0356811, Final residual = 0.00285382, No Iterations 10
smoothSolver:  Solving for Uz, Initial residual = 0.0294928, Final residual = 0.00235664, No Iterations 10
GAMG:  Solving for p, Initial residual = 0.0142815, Final residual = 0.000118704, No Iterations 4
time step continuity errors : sum local = 0.000183348, global = 1.23553e-06, cumulative = -6.55917e-05
smoothSolver:  Solving for omega, Initial residual = 0.000190585, Final residual = 1.75831e-05, No Iterations 3
bounding omega, min: -93.5284 max: 9.44907e+06 average: 931.628
smoothSolver:  Solving for k, Initial residual = 0.00291522, Final residual = 0.000162447, No Iterations 4
ExecutionTime = 12.54 s  ClockTime = 13 s

forceCoeffs forceCoeffs1 write:
    Cm    = 0.155957
    Cd    = 0.400249
    Cl    = 0.07973
    Cl(f) = 0.195821
    Cl(r) = -0.116092

Time = 62

smoothSolver:  Solving for Ux, Initial residual = 0.00168889, Final residual = 0.000148004, No Iterations 10
smoothSolver:  Solving for Uy, Initial residual = 0.0345854, Final residual = 0.00275316, No Iterations 10
smoothSolver:  Solving for Uz, Initial residual = 0.0287319, Final residual = 0.00229768, No Iterations 10
GAMG:  Solving for p, Initial residual = 0.0139872, Final residual = 0.000116034, No Iterations 4
time step continuity errors : sum local = 0.000178905, global = 1.91707e-06, cumulative = -6.36746e-05
smoothSolver:  Solving for omega, Initial residual = 0.000186206, Final residual = 1.71653e-05, No Iterations 3
bounding omega, min: -43.5458 max: 9.44907e+06 average: 932.02
smoothSolver:  Solving for k, Initial residual = 0.0028302, Final residual = 0.000158451, No Iterations 4
ExecutionTime = 12.74 s  ClockTime = 13 s

forceCoeffs forceCoeffs1 write:
    Cm    = 0.154727
    Cd    = 0.40002
    Cl    = 0.0803178
    Cl(f) = 0.194886
    Cl(r) = -0.114568

Time = 63

smoothSolver:  Solving for Ux, Initial residual = 0.00163955, Final residual = 0.000142713, No Iterations 10
smoothSolver:  Solving for Uy, Initial residual = 0.0335514, Final residual = 0.00266298, No Iterations 10
smoothSolver:  Solving for Uz, Initial residual = 0.0282091, Final residual = 0.00224625, No Iterations 10
GAMG:  Solving for p, Initial residual = 0.0136536, Final residual = 0.00011495, No Iterations 4
time step continuity errors : sum local = 0.000176806, global = 2.54576e-06, cumulative = -6.11289e-05
smoothSolver:  Solving for omega, Initial residual = 0.000181747, Final residual = 1.6783e-05, No Iterations 3
smoothSolver:  Solving for k, Initial residual = 0.00275068, Final residual = 0.000154717, No Iterations 4
ExecutionTime = 12.92 s  ClockTime = 13 s

forceCoeffs forceCoeffs1 write:
    Cm    = 0.15383
    Cd    = 0.399861
    Cl    = 0.0807095
    Cl(f) = 0.194185
    Cl(r) = -0.113476

Time = 64

smoothSolver:  Solving for Ux, Initial residual = 0.00159444, Final residual = 0.000137702, No Iterations 10
smoothSolver:  Solving for Uy, Initial residual = 0.0327045, Final residual = 0.00258706, No Iterations 10
smoothSolver:  Solving for Uz, Initial residual = 0.0278095, Final residual = 0.00220727, No Iterations 10
GAMG:  Solving for p, Initial residual = 0.0132909, Final residual = 0.000112228, No Iterations 4
time step continuity errors : sum local = 0.000172222, global = 3.02838e-06, cumulative = -5.81005e-05
smoothSolver:  Solving for omega, Initial residual = 0.000178104, Final residual = 1.64829e-05, No Iterations 3
bounding omega, min: -37.1372 max: 9.44907e+06 average: 933.795
smoothSolver:  Solving for k, Initial residual = 0.00267929, Final residual = 0.000151019, No Iterations 4
ExecutionTime = 13.09 s  ClockTime = 13 s

forceCoeffs forceCoeffs1 write:
    Cm    = 0.153515
    Cd    = 0.400097
    Cl    = 0.080773
    Cl(f) = 0.193902
    Cl(r) = -0.113129

Time = 65

smoothSolver:  Solving for Ux, Initial residual = 0.00155263, Final residual = 0.00013342, No Iterations 10
smoothSolver:  Solving for Uy, Initial residual = 0.032137, Final residual = 0.00319952, No Iterations 9
smoothSolver:  Solving for Uz, Initial residual = 0.0274687, Final residual = 0.00217901, No Iterations 10
GAMG:  Solving for p, Initial residual = 0.0129661, Final residual = 0.000109742, No Iterations 4
time step continuity errors : sum local = 0.000168068, global = 3.08618e-06, cumulative = -5.50143e-05
smoothSolver:  Solving for omega, Initial residual = 0.00017513, Final residual = 1.61639e-05, No Iterations 3
smoothSolver:  Solving for k, Initial residual = 0.00260717, Final residual = 0.000146372, No Iterations 4
ExecutionTime = 13.28 s  ClockTime = 13 s

forceCoeffs forceCoeffs1 write:
    Cm    = 0.153601
    Cd    = 0.400295
    Cl    = 0.080355
    Cl(f) = 0.193778
    Cl(r) = -0.113423

Time = 66

smoothSolver:  Solving for Ux, Initial residual = 0.00151016, Final residual = 0.000129742, No Iterations 10
smoothSolver:  Solving for Uy, Initial residual = 0.0319337, Final residual = 0.00317645, No Iterations 9
smoothSolver:  Solving for Uz, Initial residual = 0.0270399, Final residual = 0.00215158, No Iterations 10
GAMG:  Solving for p, Initial residual = 0.0126913, Final residual = 0.000106367, No Iterations 4
time step continuity errors : sum local = 0.000162645, global = 3.24074e-06, cumulative = -5.17736e-05
smoothSolver:  Solving for omega, Initial residual = 0.000171774, Final residual = 1.58515e-05, No Iterations 3
bounding omega, min: -74.1796 max: 9.44907e+06 average: 935.574
smoothSolver:  Solving for k, Initial residual = 0.00252485, Final residual = 0.000141394, No Iterations 4
ExecutionTime = 13.47 s  ClockTime = 13 s

forceCoeffs forceCoeffs1 write:
    Cm    = 0.153898
    Cd    = 0.400353
    Cl    = 0.0794339
    Cl(f) = 0.193615
    Cl(r) = -0.114181

Time = 67

smoothSolver:  Solving for Ux, Initial residual = 0.00146907, Final residual = 0.000126337, No Iterations 10
smoothSolver:  Solving for Uy, Initial residual = 0.0317371, Final residual = 0.00316629, No Iterations 9
smoothSolver:  Solving for Uz, Initial residual = 0.0265878, Final residual = 0.00212938, No Iterations 10
GAMG:  Solving for p, Initial residual = 0.01244, Final residual = 0.000105458, No Iterations 4
time step continuity errors : sum local = 0.000161051, global = 2.89385e-06, cumulative = -4.88797e-05
smoothSolver:  Solving for omega, Initial residual = 0.000168519, Final residual = 1.55151e-05, No Iterations 3
smoothSolver:  Solving for k, Initial residual = 0.0024485, Final residual = 0.000136877, No Iterations 4
ExecutionTime = 13.65 s  ClockTime = 14 s

forceCoeffs forceCoeffs1 write:
    Cm    = 0.154238
    Cd    = 0.400183
    Cl    = 0.0781888
    Cl(f) = 0.193332
    Cl(r) = -0.115144

Time = 68

smoothSolver:  Solving for Ux, Initial residual = 0.00143309, Final residual = 0.00012347, No Iterations 10
smoothSolver:  Solving for Uy, Initial residual = 0.0315068, Final residual = 0.00249824, No Iterations 10
smoothSolver:  Solving for Uz, Initial residual = 0.0261603, Final residual = 0.00211456, No Iterations 10
GAMG:  Solving for p, Initial residual = 0.0121845, Final residual = 0.00010388, No Iterations 4
time step continuity errors : sum local = 0.000158546, global = 2.71009e-06, cumulative = -4.61696e-05
smoothSolver:  Solving for omega, Initial residual = 0.000165195, Final residual = 1.51608e-05, No Iterations 3
smoothSolver:  Solving for k, Initial residual = 0.00237543, Final residual = 0.000132734, No Iterations 4
ExecutionTime = 13.83 s  ClockTime = 14 s

forceCoeffs forceCoeffs1 write:
    Cm    = 0.154387
    Cd    = 0.399723
    Cl    = 0.0767727
    Cl(f) = 0.192773
    Cl(r) = -0.116

Time = 69

smoothSolver:  Solving for Ux, Initial residual = 0.00140029, Final residual = 0.000121614, No Iterations 10
smoothSolver:  Solving for Uy, Initial residual = 0.0310472, Final residual = 0.00246742, No Iterations 10
smoothSolver:  Solving for Uz, Initial residual = 0.0258196, Final residual = 0.00210901, No Iterations 10
GAMG:  Solving for p, Initial residual = 0.0118821, Final residual = 0.000102965, No Iterations 4
time step continuity errors : sum local = 0.000157148, global = 2.7284e-06, cumulative = -4.34412e-05
smoothSolver:  Solving for omega, Initial residual = 0.000162373, Final residual = 1.4863e-05, No Iterations 3
smoothSolver:  Solving for k, Initial residual = 0.00230639, Final residual = 0.000128489, No Iterations 4
ExecutionTime = 14.02 s  ClockTime = 14 s

forceCoeffs forceCoeffs1 write:
    Cm    = 0.154376
    Cd    = 0.399239
    Cl    = 0.0755636
    Cl(f) = 0.192158
    Cl(r) = -0.116594

Time = 70

smoothSolver:  Solving for Ux, Initial residual = 0.001371, Final residual = 0.000120228, No Iterations 10
smoothSolver:  Solving for Uy, Initial residual = 0.030619, Final residual = 0.00243077, No Iterations 10
smoothSolver:  Solving for Uz, Initial residual = 0.0254767, Final residual = 0.00209407, No Iterations 10
GAMG:  Solving for p, Initial residual = 0.0115825, Final residual = 0.0001009, No Iterations 4
time step continuity errors : sum local = 0.000154081, global = 2.73818e-06, cumulative = -4.0703e-05
smoothSolver:  Solving for omega, Initial residual = 0.000159449, Final residual = 1.46025e-05, No Iterations 3
smoothSolver:  Solving for k, Initial residual = 0.00224249, Final residual = 0.000124601, No Iterations 4
ExecutionTime = 14.19 s  ClockTime = 14 s

forceCoeffs forceCoeffs1 write:
    Cm    = 0.154089
    Cd    = 0.39874
    Cl    = 0.0747186
    Cl(f) = 0.191449
    Cl(r) = -0.11673

Time = 71

smoothSolver:  Solving for Ux, Initial residual = 0.00134789, Final residual = 0.000118543, No Iterations 10
smoothSolver:  Solving for Uy, Initial residual = 0.0301798, Final residual = 0.00238197, No Iterations 10
smoothSolver:  Solving for Uz, Initial residual = 0.0251701, Final residual = 0.00207267, No Iterations 10
GAMG:  Solving for p, Initial residual = 0.0112779, Final residual = 9.82959e-05, No Iterations 4
time step continuity errors : sum local = 0.000150197, global = 2.75504e-06, cumulative = -3.7948e-05
smoothSolver:  Solving for omega, Initial residual = 0.000156539, Final residual = 1.44012e-05, No Iterations 3
smoothSolver:  Solving for k, Initial residual = 0.0021839, Final residual = 0.000121454, No Iterations 4
ExecutionTime = 14.38 s  ClockTime = 14 s

forceCoeffs forceCoeffs1 write:
    Cm    = 0.153691
    Cd    = 0.398478
    Cl    = 0.0744474
    Cl(f) = 0.190914
    Cl(r) = -0.116467

Time = 72

smoothSolver:  Solving for Ux, Initial residual = 0.00132578, Final residual = 0.000116421, No Iterations 10
smoothSolver:  Solving for Uy, Initial residual = 0.0297713, Final residual = 0.00295143, No Iterations 9
smoothSolver:  Solving for Uz, Initial residual = 0.0248597, Final residual = 0.00204338, No Iterations 10
GAMG:  Solving for p, Initial residual = 0.0110163, Final residual = 9.56678e-05, No Iterations 4
time step continuity errors : sum local = 0.000146237, global = 2.39396e-06, cumulative = -3.5554e-05
smoothSolver:  Solving for omega, Initial residual = 0.000154228, Final residual = 1.4216e-05, No Iterations 3
smoothSolver:  Solving for k, Initial residual = 0.0021343, Final residual = 0.000118933, No Iterations 4
ExecutionTime = 14.57 s  ClockTime = 15 s

forceCoeffs forceCoeffs1 write:
    Cm    = 0.153154
    Cd    = 0.398374
    Cl    = 0.0745765
    Cl(f) = 0.190442
    Cl(r) = -0.115866

Time = 73

smoothSolver:  Solving for Ux, Initial residual = 0.00130564, Final residual = 0.000113966, No Iterations 10
smoothSolver:  Solving for Uy, Initial residual = 0.0294527, Final residual = 0.00290001, No Iterations 9
smoothSolver:  Solving for Uz, Initial residual = 0.0245312, Final residual = 0.00200714, No Iterations 10
GAMG:  Solving for p, Initial residual = 0.0108445, Final residual = 9.20897e-05, No Iterations 4
time step continuity errors : sum local = 0.000140679, global = 8.95162e-07, cumulative = -3.46589e-05
smoothSolver:  Solving for omega, Initial residual = 0.000151965, Final residual = 1.40001e-05, No Iterations 3
smoothSolver:  Solving for k, Initial residual = 0.00209414, Final residual = 0.000116635, No Iterations 4
ExecutionTime = 14.75 s  ClockTime = 15 s

forceCoeffs forceCoeffs1 write:
    Cm    = 0.152726
    Cd    = 0.398569
    Cl    = 0.0751656
    Cl(f) = 0.190309
    Cl(r) = -0.115143

Time = 74

smoothSolver:  Solving for Ux, Initial residual = 0.00128503, Final residual = 0.000111256, No Iterations 10
smoothSolver:  Solving for Uy, Initial residual = 0.0290456, Final residual = 0.00283854, No Iterations 9
smoothSolver:  Solving for Uz, Initial residual = 0.0242459, Final residual = 0.00196885, No Iterations 10
GAMG:  Solving for p, Initial residual = 0.0107598, Final residual = 8.96037e-05, No Iterations 4
time step continuity errors : sum local = 0.000136657, global = 5.94997e-09, cumulative = -3.46529e-05
smoothSolver:  Solving for omega, Initial residual = 0.000149888, Final residual = 1.37786e-05, No Iterations 3
bounding omega, min: -8.72997 max: 9.44907e+06 average: 937.594
smoothSolver:  Solving for k, Initial residual = 0.00206203, Final residual = 0.000114691, No Iterations 4
ExecutionTime = 14.94 s  ClockTime = 15 s

forceCoeffs forceCoeffs1 write:
    Cm    = 0.15243
    Cd    = 0.398993
    Cl    = 0.0758205
    Cl(f) = 0.19034
    Cl(r) = -0.114519

Time = 75

smoothSolver:  Solving for Ux, Initial residual = 0.00126213, Final residual = 0.000108176, No Iterations 10
smoothSolver:  Solving for Uy, Initial residual = 0.0285505, Final residual = 0.00276493, No Iterations 9
smoothSolver:  Solving for Uz, Initial residual = 0.0239904, Final residual = 0.00192709, No Iterations 10
GAMG:  Solving for p, Initial residual = 0.0107415, Final residual = 8.84438e-05, No Iterations 4
time step continuity errors : sum local = 0.000134582, global = -5.98244e-07, cumulative = -3.52512e-05
smoothSolver:  Solving for omega, Initial residual = 0.000148076, Final residual = 1.35593e-05, No Iterations 3
smoothSolver:  Solving for k, Initial residual = 0.00204024, Final residual = 0.000112974, No Iterations 4
ExecutionTime = 15.13 s  ClockTime = 15 s

forceCoeffs forceCoeffs1 write:
    Cm    = 0.152252
    Cd    = 0.399522
    Cl    = 0.0762553
    Cl(f) = 0.19038
    Cl(r) = -0.114124

Time = 76

smoothSolver:  Solving for Ux, Initial residual = 0.0012376, Final residual = 0.000104872, No Iterations 10
smoothSolver:  Solving for Uy, Initial residual = 0.0279725, Final residual = 0.00268968, No Iterations 9
smoothSolver:  Solving for Uz, Initial residual = 0.0237492, Final residual = 0.00188395, No Iterations 10
GAMG:  Solving for p, Initial residual = 0.0107305, Final residual = 8.79572e-05, No Iterations 4
time step continuity errors : sum local = 0.000133489, global = -1.06052e-06, cumulative = -3.63117e-05
smoothSolver:  Solving for omega, Initial residual = 0.000146515, Final residual = 1.33604e-05, No Iterations 3
smoothSolver:  Solving for k, Initial residual = 0.00202207, Final residual = 0.000111582, No Iterations 4
ExecutionTime = 15.3 s  ClockTime = 15 s

forceCoeffs forceCoeffs1 write:
    Cm    = 0.152127
    Cd    = 0.400045
    Cl    = 0.0763315
    Cl(f) = 0.190293
    Cl(r) = -0.113962

Time = 77

[...]
    Cd    = 0.400269
    Cl    = 0.0755214
    Cl(f) = 0.189947
    Cl(r) = -0.114426

Time = 80

smoothSolver:  Solving for Ux, Initial residual = 0.00112647, Final residual = 9.34992e-05, No Iterations 10
smoothSolver:  Solving for Uy, Initial residual = 0.0259062, Final residual = 0.00244952, No Iterations 9
smoothSolver:  Solving for Uz, Initial residual = 0.0228723, Final residual = 0.00221126, No Iterations 9
GAMG:  Solving for p, Initial residual = 0.0105715, Final residual = 8.01281e-05, No Iterations 4
time step continuity errors : sum local = 0.00012088, global = 1.8435e-07, cumulative = -3.99986e-05
smoothSolver:  Solving for omega, Initial residual = 0.000141445, Final residual = 1.2681e-05, No Iterations 3
smoothSolver:  Solving for k, Initial residual = 0.00195501, Final residual = 0.000109128, No Iterations 4
ExecutionTime = 16.04 s  ClockTime = 16 s

forceCoeffs forceCoeffs1 write:
    Cm    = 0.152307
    Cd    = 0.399833
    Cl    = 0.0748388
    Cl(f) = 0.189727
    Cl(r) = -0.114888

Time = 81

smoothSolver:  Solving for Ux, Initial residual = 0.00109936, Final residual = 9.18447e-05, No Iterations 10
smoothSolver:  Solving for Uy, Initial residual = 0.0254614, Final residual = 0.00241595, No Iterations 9
smoothSolver:  Solving for Uz, Initial residual = 0.0224612, Final residual = 0.00216948, No Iterations 9
GAMG:  Solving for p, Initial residual = 0.0105101, Final residual = 7.81442e-05, No Iterations 4
time step continuity errors : sum local = 0.000117873, global = 1.13617e-06, cumulative = -3.88625e-05
smoothSolver:  Solving for omega, Initial residual = 0.000140942, Final residual = 1.26075e-05, No Iterations 3
smoothSolver:  Solving for k, Initial residual = 0.00194187, Final residual = 0.000108908, No Iterations 4
ExecutionTime = 16.22 s  ClockTime = 16 s

forceCoeffs forceCoeffs1 write:
    Cm    = 0.15254
    Cd    = 0.399398
    Cl    = 0.0738015
    Cl(f) = 0.18944
    Cl(r) = -0.115639

Time = 82

smoothSolver:  Solving for Ux, Initial residual = 0.00107393, Final residual = 9.05506e-05, No Iterations 10
smoothSolver:  Solving for Uy, Initial residual = 0.0249771, Final residual = 0.00238113, No Iterations 9
smoothSolver:  Solving for Uz, Initial residual = 0.0220064, Final residual = 0.00213135, No Iterations 9
GAMG:  Solving for p, Initial residual = 0.0104402, Final residual = 7.74624e-05, No Iterations 4
time step continuity errors : sum local = 0.000116895, global = 1.95974e-06, cumulative = -3.69027e-05
smoothSolver:  Solving for omega, Initial residual = 0.000140884, Final residual = 1.25916e-05, No Iterations 3
smoothSolver:  Solving for k, Initial residual = 0.00193511, Final residual = 0.00010916, No Iterations 4
ExecutionTime = 16.41 s  ClockTime = 16 s

forceCoeffs forceCoeffs1 write:
    Cm    = 0.152832
    Cd    = 0.399069
    Cl    = 0.0723793
    Cl(f) = 0.189022
    Cl(r) = -0.116643

Time = 83

smoothSolver:  Solving for Ux, Initial residual = 0.00105338, Final residual = 8.90435e-05, No Iterations 10
smoothSolver:  Solving for Uy, Initial residual = 0.0245739, Final residual = 0.0023457, No Iterations 9
smoothSolver:  Solving for Uz, Initial residual = 0.0216285, Final residual = 0.00209896, No Iterations 9
GAMG:  Solving for p, Initial residual = 0.0103534, Final residual = 7.84672e-05, No Iterations 4
time step continuity errors : sum local = 0.000118526, global = 2.47981e-06, cumulative = -3.44229e-05
smoothSolver:  Solving for omega, Initial residual = 0.00014102, Final residual = 1.25963e-05, No Iterations 3
smoothSolver:  Solving for k, Initial residual = 0.00193534, Final residual = 0.000109703, No Iterations 4
ExecutionTime = 16.6 s  ClockTime = 17 s

forceCoeffs forceCoeffs1 write:
    Cm    = 0.153184
    Cd    = 0.398968
    Cl    = 0.070813
    Cl(f) = 0.18859
    Cl(r) = -0.117777

Time = 84

smoothSolver:  Solving for Ux, Initial residual = 0.00103912, Final residual = 8.74454e-05, No Iterations 10
smoothSolver:  Solving for Uy, Initial residual = 0.0243417, Final residual = 0.00231556, No Iterations 9
smoothSolver:  Solving for Uz, Initial residual = 0.021411, Final residual = 0.00207928, No Iterations 9
GAMG:  Solving for p, Initial residual = 0.0102733, Final residual = 8.0522e-05, No Iterations 4
time step continuity errors : sum local = 0.000121793, global = 2.58448e-06, cumulative = -3.18384e-05
smoothSolver:  Solving for omega, Initial residual = 0.000141858, Final residual = 1.26206e-05, No Iterations 3
smoothSolver:  Solving for k, Initial residual = 0.00193871, Final residual = 0.000110183, No Iterations 4
ExecutionTime = 16.79 s  ClockTime = 17 s

forceCoeffs forceCoeffs1 write:
    Cm    = 0.153574
    Cd    = 0.399284
    Cl    = 0.0693714
    Cl(f) = 0.18826
    Cl(r) = -0.118889

Time = 85

smoothSolver:  Solving for Ux, Initial residual = 0.00102743, Final residual = 8.58659e-05, No Iterations 10
smoothSolver:  Solving for Uy, Initial residual = 0.0242137, Final residual = 0.00228693, No Iterations 9
smoothSolver:  Solving for Uz, Initial residual = 0.0213414, Final residual = 0.00206067, No Iterations 9
GAMG:  Solving for p, Initial residual = 0.0101843, Final residual = 8.33631e-05, No Iterations 4
time step continuity errors : sum local = 0.000126285, global = 2.26471e-06, cumulative = -2.95737e-05
smoothSolver:  Solving for omega, Initial residual = 0.000142197, Final residual = 1.26053e-05, No Iterations 3
smoothSolver:  Solving for k, Initial residual = 0.00194357, Final residual = 0.000110294, No Iterations 4
ExecutionTime = 16.98 s  ClockTime = 17 s

forceCoeffs forceCoeffs1 write:
    Cm    = 0.153911
    Cd    = 0.399829
    Cl    = 0.0683702
    Cl(f) = 0.188096
    Cl(r) = -0.119726

Time = 86

smoothSolver:  Solving for Ux, Initial residual = 0.0010167, Final residual = 8.42123e-05, No Iterations 10
smoothSolver:  Solving for Uy, Initial residual = 0.0241629, Final residual = 0.0022571, No Iterations 9
smoothSolver:  Solving for Uz, Initial residual = 0.0213368, Final residual = 0.00203331, No Iterations 9
GAMG:  Solving for p, Initial residual = 0.0101168, Final residual = 8.55301e-05, No Iterations 4
time step continuity errors : sum local = 0.000129664, global = 1.52838e-06, cumulative = -2.80454e-05
smoothSolver:  Solving for omega, Initial residual = 0.000142222, Final residual = 1.25854e-05, No Iterations 3
smoothSolver:  Solving for k, Initial residual = 0.00194569, Final residual = 0.000109995, No Iterations 4
ExecutionTime = 17.15 s  ClockTime = 17 s

forceCoeffs forceCoeffs1 write:
    Cm    = 0.154187
    Cd    = 0.40055
    Cl    = 0.0680681
    Cl(f) = 0.188221
    Cl(r) = -0.120153

Time = 87

smoothSolver:  Solving for Ux, Initial residual = 0.00100503, Final residual = 8.26628e-05, No Iterations 10
smoothSolver:  Solving for Uy, Initial residual = 0.0241783, Final residual = 0.00222657, No Iterations 9
smoothSolver:  Solving for Uz, Initial residual = 0.0213328, Final residual = 0.00199664, No Iterations 9
GAMG:  Solving for p, Initial residual = 0.0101029, Final residual = 8.71503e-05, No Iterations 4
time step continuity errors : sum local = 0.0001321, global = 4.05123e-07, cumulative = -2.76402e-05
smoothSolver:  Solving for omega, Initial residual = 0.000142121, Final residual = 1.25982e-05, No Iterations 3
bounding omega, min: -127.569 max: 9.44907e+06 average: 939.374
smoothSolver:  Solving for k, Initial residual = 0.00194396, Final residual = 0.000109571, No Iterations 4
ExecutionTime = 17.33 s  ClockTime = 17 s

forceCoeffs forceCoeffs1 write:
    Cm    = 0.154506
    Cd    = 0.401389
    Cl    = 0.0685566
    Cl(f) = 0.188784
    Cl(r) = -0.120228

Time = 88

smoothSolver:  Solving for Ux, Initial residual = 0.000995424, Final residual = 8.14794e-05, No Iterations 10
smoothSolver:  Solving for Uy, Initial residual = 0.0242097, Final residual = 0.00219464, No Iterations 9
smoothSolver:  Solving for Uz, Initial residual = 0.0212983, Final residual = 0.00195996, No Iterations 9
GAMG:  Solving for p, Initial residual = 0.0101396, Final residual = 8.77323e-05, No Iterations 4
time step continuity errors : sum local = 0.000132758, global = -6.37364e-07, cumulative = -2.82776e-05
smoothSolver:  Solving for omega, Initial residual = 0.000142041, Final residual = 1.25999e-05, No Iterations 3
smoothSolver:  Solving for k, Initial residual = 0.00193836, Final residual = 0.000109038, No Iterations 4
ExecutionTime = 17.53 s  ClockTime = 18 s

forceCoeffs forceCoeffs1 write:
    Cm    = 0.154913
    Cd    = 0.402384
    Cl    = 0.0696571
    Cl(f) = 0.189742
    Cl(r) = -0.120084

Time = 89

smoothSolver:  Solving for Ux, Initial residual = 0.00098601, Final residual = 8.03776e-05, No Iterations 10
smoothSolver:  Solving for Uy, Initial residual = 0.0241323, Final residual = 0.00216068, No Iterations 9
smoothSolver:  Solving for Uz, Initial residual = 0.0211498, Final residual = 0.00192742, No Iterations 9
GAMG:  Solving for p, Initial residual = 0.0102, Final residual = 8.64125e-05, No Iterations 4
time step continuity errors : sum local = 0.000130443, global = -1.11122e-06, cumulative = -2.93888e-05
smoothSolver:  Solving for omega, Initial residual = 0.000142374, Final residual = 1.26103e-05, No Iterations 3
bounding omega, min: -146.096 max: 9.44907e+06 average: 939.594
smoothSolver:  Solving for k, Initial residual = 0.00193103, Final residual = 0.000108484, No Iterations 4
ExecutionTime = 17.71 s  ClockTime = 18 s

forceCoeffs forceCoeffs1 write:
    Cm    = 0.155385
    Cd    = 0.403489
    Cl    = 0.0711387
    Cl(f) = 0.190954
    Cl(r) = -0.119815

Time = 90

smoothSolver:  Solving for Ux, Initial residual = 0.000976893, Final residual = 7.9101e-05, No Iterations 10
smoothSolver:  Solving for Uy, Initial residual = 0.0239819, Final residual = 0.00212129, No Iterations 9
smoothSolver:  Solving for Uz, Initial residual = 0.0208978, Final residual = 0.00190331, No Iterations 9
GAMG:  Solving for p, Initial residual = 0.0102348, Final residual = 8.35108e-05, No Iterations 4
time step continuity errors : sum local = 0.000125676, global = -1.48872e-06, cumulative = -3.08775e-05
smoothSolver:  Solving for omega, Initial residual = 0.000142411, Final residual = 1.25625e-05, No Iterations 3
smoothSolver:  Solving for k, Initial residual = 0.00192348, Final residual = 0.000108108, No Iterations 4
ExecutionTime = 17.9 s  ClockTime = 18 s

forceCoeffs forceCoeffs1 write:
    Cm    = 0.155736
    Cd    = 0.404614
    Cl    = 0.0727323
    Cl(f) = 0.192102
    Cl(r) = -0.11937

Time = 91

smoothSolver:  Solving for Ux, Initial residual = 0.00096557, Final residual = 7.74976e-05, No Iterations 10
smoothSolver:  Solving for Uy, Initial residual = 0.0236923, Final residual = 0.00208572, No Iterations 9
smoothSolver:  Solving for Uz, Initial residual = 0.0205511, Final residual = 0.00188151, No Iterations 9
GAMG:  Solving for p, Initial residual = 0.010258, Final residual = 7.99221e-05, No Iterations 4
time step continuity errors : sum local = 0.000119922, global = -1.86744e-06, cumulative = -3.2745e-05
smoothSolver:  Solving for omega, Initial residual = 0.000141819, Final residual = 1.24901e-05, No Iterations 3
bounding omega, min: -13.1669 max: 9.44907e+06 average: 939.372
smoothSolver:  Solving for k, Initial residual = 0.00191491, Final residual = 0.000107864, No Iterations 4
ExecutionTime = 18.09 s  ClockTime = 18 s

forceCoeffs forceCoeffs1 write:
    Cm    = 0.15596
    Cd    = 0.405759
    Cl    = 0.0742353
    Cl(f) = 0.193078
    Cl(r) = -0.118843

Time = 92

smoothSolver:  Solving for Ux, Initial residual = 0.000948846, Final residual = 7.59045e-05, No Iterations 10
smoothSolver:  Solving for Uy, Initial residual = 0.023264, Final residual = 0.00206352, No Iterations 9
smoothSolver:  Solving for Uz, Initial residual = 0.0201158, Final residual = 0.00185646, No Iterations 9
GAMG:  Solving for p, Initial residual = 0.0102342, Final residual = 7.72735e-05, No Iterations 4
time step continuity errors : sum local = 0.000115641, global = -2.24365e-06, cumulative = -3.49886e-05
smoothSolver:  Solving for omega, Initial residual = 0.000140692, Final residual = 1.23689e-05, No Iterations 3
smoothSolver:  Solving for k, Initial residual = 0.00190255, Final residual = 0.00010765, No Iterations 4
ExecutionTime = 18.27 s  ClockTime = 18 s

forceCoeffs forceCoeffs1 write:
    Cm    = 0.156015
    Cd    = 0.406703
    Cl    = 0.0754307
    Cl(f) = 0.19373
    Cl(r) = -0.1183

Time = 93

smoothSolver:  Solving for Ux, Initial residual = 0.000933255, Final residual = 7.49848e-05, No Iterations 10
smoothSolver:  Solving for Uy, Initial residual = 0.0228169, Final residual = 0.00205122, No Iterations 9
smoothSolver:  Solving for Uz, Initial residual = 0.0197472, Final residual = 0.00183606, No Iterations 9
GAMG:  Solving for p, Initial residual = 0.0101335, Final residual = 7.69358e-05, No Iterations 4
time step continuity errors : sum local = 0.000114878, global = -2.53768e-06, cumulative = -3.75263e-05
smoothSolver:  Solving for omega, Initial residual = 0.000139675, Final residual = 1.22695e-05, No Iterations 3
smoothSolver:  Solving for k, Initial residual = 0.00188654, Final residual = 0.000107018, No Iterations 4
ExecutionTime = 18.45 s  ClockTime = 18 s

forceCoeffs forceCoeffs1 write:
    Cm    = 0.156081
    Cd    = 0.407449
    Cl    = 0.076274
    Cl(f) = 0.194218
    Cl(r) = -0.117944

Time = 94

smoothSolver:  Solving for Ux, Initial residual = 0.000918557, Final residual = 7.46353e-05, No Iterations 10
smoothSolver:  Solving for Uy, Initial residual = 0.0225527, Final residual = 0.00204673, No Iterations 9
smoothSolver:  Solving for Uz, Initial residual = 0.019551, Final residual = 0.00182881, No Iterations 9
GAMG:  Solving for p, Initial residual = 0.00997983, Final residual = 7.78375e-05, No Iterations 4
time step continuity errors : sum local = 0.000116054, global = -2.67842e-06, cumulative = -4.02047e-05
smoothSolver:  Solving for omega, Initial residual = 0.000138795, Final residual = 1.21554e-05, No Iterations 3
smoothSolver:  Solving for k, Initial residual = 0.00186793, Final residual = 0.000105807, No Iterations 4
ExecutionTime = 18.63 s  ClockTime = 19 s

forceCoeffs forceCoeffs1 write:
    Cm    = 0.156191
    Cd    = 0.407997
    Cl    = 0.0767072
    Cl(f) = 0.194544
    Cl(r) = -0.117837

Time = 95

smoothSolver:  Solving for Ux, Initial residual = 0.000908912, Final residual = 7.43883e-05, No Iterations 10
smoothSolver:  Solving for Uy, Initial residual = 0.0225822, Final residual = 0.00205145, No Iterations 9
smoothSolver:  Solving for Uz, Initial residual = 0.0196378, Final residual = 0.00183727, No Iterations 9
GAMG:  Solving for p, Initial residual = 0.00983839, Final residual = 7.86065e-05, No Iterations 4
time step continuity errors : sum local = 0.000117082, global = -2.31077e-06, cumulative = -4.25155e-05
smoothSolver:  Solving for omega, Initial residual = 0.000138119, Final residual = 1.20734e-05, No Iterations 3
smoothSolver:  Solving for k, Initial residual = 0.00184947, Final residual = 0.000104314, No Iterations 4
ExecutionTime = 18.83 s  ClockTime = 19 s

forceCoeffs forceCoeffs1 write:
    Cm    = 0.15647
    Cd    = 0.408413
    Cl    = 0.0769056
    Cl(f) = 0.194923
    Cl(r) = -0.118017

Time = 96

smoothSolver:  Solving for Ux, Initial residual = 0.000902621, Final residual = 7.37669e-05, No Iterations 10
smoothSolver:  Solving for Uy, Initial residual = 0.0226233, Final residual = 0.00205039, No Iterations 9
smoothSolver:  Solving for Uz, Initial residual = 0.0197764, Final residual = 0.00184694, No Iterations 9
GAMG:  Solving for p, Initial residual = 0.00974226, Final residual = 7.86379e-05, No Iterations 4
time step continuity errors : sum local = 0.000117047, global = -1.54549e-06, cumulative = -4.4061e-05
smoothSolver:  Solving for omega, Initial residual = 0.000137722, Final residual = 1.20163e-05, No Iterations 3
smoothSolver:  Solving for k, Initial residual = 0.00183343, Final residual = 0.000102518, No Iterations 4
ExecutionTime = 19.01 s  ClockTime = 19 s

forceCoeffs forceCoeffs1 write:
    Cm    = 0.156866
    Cd    = 0.408665
    Cl    = 0.0768928
    Cl(f) = 0.195312
    Cl(r) = -0.118419

Time = 97

smoothSolver:  Solving for Ux, Initial residual = 0.000898764, Final residual = 7.30254e-05, No Iterations 10
smoothSolver:  Solving for Uy, Initial residual = 0.0225625, Final residual = 0.00204342, No Iterations 9
smoothSolver:  Solving for Uz, Initial residual = 0.0198593, Final residual = 0.00185181, No Iterations 9
GAMG:  Solving for p, Initial residual = 0.00968503, Final residual = 7.73133e-05, No Iterations 4
time step continuity errors : sum local = 0.000115003, global = -4.80207e-07, cumulative = -4.45412e-05
smoothSolver:  Solving for omega, Initial residual = 0.000137217, Final residual = 1.19459e-05, No Iterations 3
smoothSolver:  Solving for k, Initial residual = 0.00182051, Final residual = 0.000100758, No Iterations 4
ExecutionTime = 19.18 s  ClockTime = 19 s

forceCoeffs forceCoeffs1 write:
    Cm    = 0.157429
    Cd    = 0.408769
    Cl    = 0.0767301
    Cl(f) = 0.195794
    Cl(r) = -0.119064

Time = 98

smoothSolver:  Solving for Ux, Initial residual = 0.00089379, Final residual = 7.26003e-05, No Iterations 10
smoothSolver:  Solving for Uy, Initial residual = 0.0224035, Final residual = 0.00204383, No Iterations 9
smoothSolver:  Solving for Uz, Initial residual = 0.0197983, Final residual = 0.00185174, No Iterations 9
GAMG:  Solving for p, Initial residual = 0.00963836, Final residual = 7.48027e-05, No Iterations 4
time step continuity errors : sum local = 0.00011124, global = 5.81967e-07, cumulative = -4.39592e-05
smoothSolver:  Solving for omega, Initial residual = 0.000136688, Final residual = 1.18729e-05, No Iterations 3
smoothSolver:  Solving for k, Initial residual = 0.00181229, Final residual = 9.95877e-05, No Iterations 4
ExecutionTime = 19.36 s  ClockTime = 19 s

forceCoeffs forceCoeffs1 write:
    Cm    = 0.158023
    Cd    = 0.40867
    Cl    = 0.076316
    Cl(f) = 0.196181
    Cl(r) = -0.119865

Time = 99

smoothSolver:  Solving for Ux, Initial residual = 0.000887804, Final residual = 7.23622e-05, No Iterations 10
smoothSolver:  Solving for Uy, Initial residual = 0.0221827, Final residual = 0.0020528, No Iterations 9
smoothSolver:  Solving for Uz, Initial residual = 0.0195583, Final residual = 0.00184794, No Iterations 9
GAMG:  Solving for p, Initial residual = 0.00957304, Final residual = 7.28396e-05, No Iterations 4
time step continuity errors : sum local = 0.000108306, global = 1.11617e-06, cumulative = -4.28431e-05
smoothSolver:  Solving for omega, Initial residual = 0.000136666, Final residual = 1.1864e-05, No Iterations 3
smoothSolver:  Solving for k, Initial residual = 0.00180827, Final residual = 9.90132e-05, No Iterations 4
ExecutionTime = 19.54 s  ClockTime = 20 s

forceCoeffs forceCoeffs1 write:
    Cm    = 0.158663
    Cd    = 0.408453
    Cl    = 0.0758414
    Cl(f) = 0.196584
    Cl(r) = -0.120743

Time = 100

smoothSolver:  Solving for Ux, Initial residual = 0.000880332, Final residual = 7.21958e-05, No Iterations 10
smoothSolver:  Solving for Uy, Initial residual = 0.0219638, Final residual = 0.00205961, No Iterations 9
smoothSolver:  Solving for Uz, Initial residual = 0.0192584, Final residual = 0.00183616, No Iterations 9
GAMG:  Solving for p, Initial residual = 0.00950849, Final residual = 7.39709e-05, No Iterations 4
time step continuity errors : sum local = 0.000109996, global = 1.36189e-06, cumulative = -4.14812e-05
smoothSolver:  Solving for omega, Initial residual = 0.000136089, Final residual = 1.18432e-05, No Iterations 3
bounding omega, min: -242.764 max: 9.44907e+06 average: 940.699
smoothSolver:  Solving for k, Initial residual = 0.00180306, Final residual = 9.88667e-05, No Iterations 4
ExecutionTime = 19.73 s  ClockTime = 20 s

forceCoeffs forceCoeffs1 write:
    Cm    = 0.15929
    Cd    = 0.408291
    Cl    = 0.0754194
    Cl(f) = 0.196999
    Cl(r) = -0.12158

End

Finalising parallel run
