/*---------------------------------------------------------------------------*\
  =========                 |
  \\      /  F ield         | OpenFOAM: The Open Source CFD Toolbox
   \\    /   O peration     | Website:  https://openfoam.org
    \\  /    A nd           | Version:  7
     \\/     M anipulation  |
\*---------------------------------------------------------------------------*/
Build  : 7
Exec   : snappyHexMesh -parallel -overwrite
Date   : Sep 11 2020
Time   : 10:29:23
Host   : "openhpc-compute-0"
PID    : 16211
I/O    : uncollated
Case   : /alaska/steveb/hpc-tests/stage/alaska/roce-gcc9-openmpi4-ucx/openfoam/Openfoam_Mbike_8
nProcs : 256
Slaves : 
255
(
"openhpc-compute-0.16212"
"openhpc-compute-0.16213"
"openhpc-compute-0.16214"
"openhpc-compute-0.16215"
"openhpc-compute-0.16216"
"openhpc-compute-0.16217"
"openhpc-compute-0.16218"
"openhpc-compute-0.16220"
"openhpc-compute-0.16219"
"openhpc-compute-0.16221"
"openhpc-compute-0.16222"
"openhpc-compute-0.16224"
"openhpc-compute-0.16223"
"openhpc-compute-0.16225"
"openhpc-compute-0.16226"
"openhpc-compute-0.16228"
"openhpc-compute-0.16227"
"openhpc-compute-0.16229"
"openhpc-compute-0.16230"
"openhpc-compute-0.16232"
"openhpc-compute-0.16231"
"openhpc-compute-0.16233"
"openhpc-compute-0.16234"
"openhpc-compute-0.16236"
"openhpc-compute-0.16235"
"openhpc-compute-0.16237"
"openhpc-compute-0.16238"
"openhpc-compute-0.16240"
"openhpc-compute-0.16239"
"openhpc-compute-0.16242"
"openhpc-compute-0.16241"
"openhpc-compute-1.42211"
"openhpc-compute-1.42212"
"openhpc-compute-1.42213"
"openhpc-compute-1.42214"
"openhpc-compute-1.42215"
"openhpc-compute-1.42219"
"openhpc-compute-1.42217"
"openhpc-compute-1.42216"
"openhpc-compute-1.42218"
"openhpc-compute-1.42226"
"openhpc-compute-1.42220"
"openhpc-compute-1.42221"
"openhpc-compute-1.42222"
"openhpc-compute-1.42228"
"openhpc-compute-1.42225"
"openhpc-compute-1.42223"
"openhpc-compute-1.42224"
"openhpc-compute-1.42232"
"openhpc-compute-1.42229"
"openhpc-compute-1.42227"
"openhpc-compute-1.42230"
"openhpc-compute-1.42236"
"openhpc-compute-1.42233"
"openhpc-compute-1.42231"
"openhpc-compute-1.42234"
"openhpc-compute-1.42240"
"openhpc-compute-1.42237"
"openhpc-compute-1.42235"
"openhpc-compute-1.42238"
"openhpc-compute-1.42242"
"openhpc-compute-1.42241"
"openhpc-compute-1.42239"
"openhpc-compute-2.48258"
"openhpc-compute-2.48259"
"openhpc-compute-2.48260"
"openhpc-compute-2.48261"
"openhpc-compute-2.48265"
"openhpc-compute-2.48264"
"openhpc-compute-2.48263"
"openhpc-compute-2.48262"
"openhpc-compute-2.48267"
"openhpc-compute-2.48266"
"openhpc-compute-2.48270"
"openhpc-compute-2.48269"
"openhpc-compute-2.48271"
"openhpc-compute-2.48268"
"openhpc-compute-2.48275"
"openhpc-compute-2.48272"
"openhpc-compute-2.48274"
"openhpc-compute-2.48273"
"openhpc-compute-2.48279"
"openhpc-compute-2.48276"
"openhpc-compute-2.48278"
"openhpc-compute-2.48277"
"openhpc-compute-2.48283"
"openhpc-compute-2.48280"
"openhpc-compute-2.48282"
"openhpc-compute-2.48281"
"openhpc-compute-2.48288"
"openhpc-compute-2.48284"
"openhpc-compute-2.48286"
"openhpc-compute-2.48285"
"openhpc-compute-2.48289"
"openhpc-compute-2.48287"
"openhpc-compute-3.33339"
"openhpc-compute-3.33340"
"openhpc-compute-3.33342"
"openhpc-compute-3.33341"
"openhpc-compute-3.33346"
"openhpc-compute-3.33345"
"openhpc-compute-3.33344"
"openhpc-compute-3.33343"
"openhpc-compute-3.33350"
"openhpc-compute-3.33349"
"openhpc-compute-3.33348"
"openhpc-compute-3.33347"
"openhpc-compute-3.33354"
"openhpc-compute-3.33353"
"openhpc-compute-3.33352"
"openhpc-compute-3.33351"
"openhpc-compute-3.33358"
"openhpc-compute-3.33357"
"openhpc-compute-3.33356"
"openhpc-compute-3.33355"
"openhpc-compute-3.33362"
"openhpc-compute-3.33361"
"openhpc-compute-3.33360"
"openhpc-compute-3.33359"
"openhpc-compute-3.33366"
"openhpc-compute-3.33365"
"openhpc-compute-3.33364"
"openhpc-compute-3.33363"
"openhpc-compute-3.33370"
"openhpc-compute-3.33369"
"openhpc-compute-3.33368"
"openhpc-compute-3.33367"
"openhpc-compute-4.48317"
"openhpc-compute-4.48318"
"openhpc-compute-4.48320"
"openhpc-compute-4.48319"
"openhpc-compute-4.48324"
"openhpc-compute-4.48321"
"openhpc-compute-4.48323"
"openhpc-compute-4.48322"
"openhpc-compute-4.48329"
"openhpc-compute-4.48326"
"openhpc-compute-4.48325"
"openhpc-compute-4.48327"
"openhpc-compute-4.48333"
"openhpc-compute-4.48328"
"openhpc-compute-4.48330"
"openhpc-compute-4.48331"
"openhpc-compute-4.48337"
"openhpc-compute-4.48332"
"openhpc-compute-4.48334"
"openhpc-compute-4.48335"
"openhpc-compute-4.48341"
"openhpc-compute-4.48336"
"openhpc-compute-4.48338"
"openhpc-compute-4.48339"
"openhpc-compute-4.48345"
"openhpc-compute-4.48340"
"openhpc-compute-4.48343"
"openhpc-compute-4.48342"
"openhpc-compute-4.48348"
"openhpc-compute-4.48344"
"openhpc-compute-4.48347"
"openhpc-compute-4.48346"
"openhpc-compute-5.29035"
"openhpc-compute-5.29036"
"openhpc-compute-5.29037"
"openhpc-compute-5.29038"
"openhpc-compute-5.29042"
"openhpc-compute-5.29041"
"openhpc-compute-5.29040"
"openhpc-compute-5.29039"
"openhpc-compute-5.29044"
"openhpc-compute-5.29043"
"openhpc-compute-5.29045"
"openhpc-compute-5.29056"
"openhpc-compute-5.29048"
"openhpc-compute-5.29046"
"openhpc-compute-5.29047"
"openhpc-compute-5.29060"
"openhpc-compute-5.29051"
"openhpc-compute-5.29049"
"openhpc-compute-5.29050"
"openhpc-compute-5.29063"
"openhpc-compute-5.29054"
"openhpc-compute-5.29052"
"openhpc-compute-5.29053"
"openhpc-compute-5.29064"
"openhpc-compute-5.29058"
"openhpc-compute-5.29055"
"openhpc-compute-5.29057"
"openhpc-compute-5.29065"
"openhpc-compute-5.29062"
"openhpc-compute-5.29059"
"openhpc-compute-5.29061"
"openhpc-compute-5.29066"
"openhpc-compute-14.5540"
"openhpc-compute-14.5541"
"openhpc-compute-14.5543"
"openhpc-compute-14.5542"
"openhpc-compute-14.5544"
"openhpc-compute-14.5545"
"openhpc-compute-14.5547"
"openhpc-compute-14.5546"
"openhpc-compute-14.5548"
"openhpc-compute-14.5549"
"openhpc-compute-14.5552"
"openhpc-compute-14.5550"
"openhpc-compute-14.5553"
"openhpc-compute-14.5551"
"openhpc-compute-14.5556"
"openhpc-compute-14.5555"
"openhpc-compute-14.5557"
"openhpc-compute-14.5554"
"openhpc-compute-14.5560"
"openhpc-compute-14.5559"
"openhpc-compute-14.5561"
"openhpc-compute-14.5558"
"openhpc-compute-14.5564"
"openhpc-compute-14.5563"
"openhpc-compute-14.5565"
"openhpc-compute-14.5562"
"openhpc-compute-14.5568"
"openhpc-compute-14.5567"
"openhpc-compute-14.5569"
"openhpc-compute-14.5566"
"openhpc-compute-14.5571"
"openhpc-compute-14.5570"
"openhpc-compute-15.58849"
"openhpc-compute-15.58850"
"openhpc-compute-15.58851"
"openhpc-compute-15.58852"
"openhpc-compute-15.58860"
"openhpc-compute-15.58864"
"openhpc-compute-15.58858"
"openhpc-compute-15.58859"
"openhpc-compute-15.58863"
"openhpc-compute-15.58866"
"openhpc-compute-15.58862"
"openhpc-compute-15.58865"
"openhpc-compute-15.58867"
"openhpc-compute-15.58873"
"openhpc-compute-15.58868"
"openhpc-compute-15.58869"
"openhpc-compute-15.58870"
"openhpc-compute-15.58877"
"openhpc-compute-15.58871"
"openhpc-compute-15.58872"
"openhpc-compute-15.58874"
"openhpc-compute-15.58885"
"openhpc-compute-15.58875"
"openhpc-compute-15.58876"
"openhpc-compute-15.58878"
"openhpc-compute-15.58890"
"openhpc-compute-15.58879"
"openhpc-compute-15.58884"
"openhpc-compute-15.58887"
"openhpc-compute-15.58891"
"openhpc-compute-15.58886"
"openhpc-compute-15.58889"
)

Pstream initialized with:
    floatTransfer      : 0
    nProcsSimpleSum    : 0
    commsType          : nonBlocking
    polling iterations : 0
sigFpe : Enabling floating point exception trapping (FOAM_SIGFPE).
fileModificationChecking : Monitoring run-time modified files using timeStampMaster (fileModificationSkew 10)
allowSystemOperations : Allowing user-supplied system call operations

// * * * * * * * * * * * * * * * * * * * * * * * * * * * * * * * * * * * * * //
Create time

Create mesh for time = 0

Read mesh in = 0.1 s

Overall mesh bounding box  : (-5 -4 0) (15 4 8)
Relative tolerance         : 1e-06
Absolute matching distance : 2.29783e-05

Reading refinement surfaces.
Read refinement surfaces in = 2.36 s

Reading refinement shells.
Refinement level 4 for all cells inside refinementBox
Read refinement shells in = 0 s

Setting refinement level of surface to be consistent with shells.
Checked shell refinement in = 1.53 s

Reading features.
Read edgeMesh motorBike.eMesh
    points      : 20665
    edges       : 20867
    boundingBox : (-0.241214 -0.337971 -4.232e-05) (1.75115 0.329368 1.21979)

Refinement level according to distance to "motorBike.eMesh" (20665 points, 20867 edges).
    level 6 for all cells within 0 metre.
Read features in = 0.26 s


Determining initial surface intersections
-----------------------------------------

Edge intersection testing:
    Number of edges             : 32256
    Number of edges to retest   : 32256
    Number of intersected edges : 26
Calculated surface intersections in = 0.1 s

Initial mesh : cells:10240  faces:32256  points:11849
Cells per refinement level:
    0	10240

Adding patches for surface regions
----------------------------------

Patch Type                Region                        
----- ----                ------                        
motorBike:

5     wall                motorBike_frt-fairing:001%1   
6     wall                motorBike_windshield:002%2    
7     wall                motorBike_rr-wh-rim:005%5     
8     wall                motorBike_rr-wh-rim:010%10    
9     wall                motorBike_fr-wh-rim:011%11    
10    wall                motorBike_fr-wh-brake-disk:012%12
11    wall                motorBike_frame:016-shadow%13 
12    wall                motorBike_rear-susp:014%14    
13    wall                motorBike_rear-susp:014-shadow%15
14    wall                motorBike_frame:016%16        
15    wall                motorBike_rr-wh-rim:005-shadow%17
16    wall                motorBike_rr-wh-chain-hub:022%22
17    wall                motorBike_rearseat%24         
18    wall                motorBike_frt-fairing%25      
19    wall                motorBike_windshield%26       
20    wall                motorBike_headlights%27       
21    wall                motorBike_driversseat%28      
22    wall                motorBike_rear-body%29        
23    wall                motorBike_fuel-tank%30        
24    wall                motorBike_exhaust%31          
25    wall                motorBike_rr-wh-rim%32        
26    wall                motorBike_fr-mud-guard%33     
27    wall                motorBike_fr-wh-rim%34        
28    wall                motorBike_fr-wh-brake-disk%35 
29    wall                motorBike_fr-brake-caliper%36 
30    wall                motorBike_fr-wh-tyre%37       
31    wall                motorBike_hbars%38            
32    wall                motorBike_fr-forks%39         
33    wall                motorBike_chain%40            
34    wall                motorBike_rr-wh-tyre%41       
35    wall                motorBike_square-dial%42      
36    wall                motorBike_round-dial%43       
37    wall                motorBike_dial-holder%44      
38    wall                motorBike_rear-susp%45        
39    wall                motorBike_rear-brake-lights%46
40    wall                motorBike_rear-light-bracket%47
41    wall                motorBike_frame%48            
42    wall                motorBike_rear-mud-guard%49   
43    wall                motorBike_rear-susp-spring-damp%50
44    wall                motorBike_fairing-inner-plate%51
45    wall                motorBike_clutch-housing%52   
46    wall                motorBike_radiator%53         
47    wall                motorBike_water-pipe%54       
48    wall                motorBike_water-pump%55       
49    wall                motorBike_engine%56           
50    wall                motorBike_rear-shock-link%57  
51    wall                motorBike_rear-brake-fluid-pot-bracket%58
52    wall                motorBike_rear-brake-fluid-pot%59
53    wall                motorBike_footpeg%60          
54    wall                motorBike_rr-wh-chain-hub%61  
55    wall                motorBike_rear-brake-caliper%62
56    wall                motorBike_rider-helmet%65     
57    wall                motorBike_rider-visor%66      
58    wall                motorBike_rider-boots%67      
59    wall                motorBike_rider-gloves%68     
60    wall                motorBike_rider-body%69       
61    wall                motorBike_frame:0%70          
62    wall                motorBike_frt-fairing:001-shadow%74
63    wall                motorBike_windshield-shadow%75
64    wall                motorBike_fr-mud-guard-shadow%81
65    wall                motorBike_fr-wh-brake-disk-shadow%83
66    wall                motorBike_rear-mud-guard-shadow%84
67    wall                motorBike_rear-susp-spring-damp-shadow%85
68    wall                motorBike_radiator-shadow%86  
69    wall                motorBike_rear-shock-link-shadow%87
70    wall                motorBike_rear-brake-fluid-pot-bracket-shadow%88
71    wall                motorBike_rr-wh-chain-hub-shadow%89

Added patches in = 0.08 s

[0]  Foam::decompositionMethod::New 
[0] {
[8]  Foam::decompositionMethod::New 
[8] {
[8]     numberOfSubdomains 256;
[17]  Foam::decompositionMethod::New 
[17] {
[28]  Foam::decompositionMethod::New 
[28] {
[28]     numberOfSubdomains 256;
[28]     method          scotch;
[0]     numberOfSubdomains 256;
[0]     method          scotch;
[0]     simpleCoeffs
[0]     {
[0]         n               ( 4 1 1 );
[0]         delta           0.001;
[1]  Foam::decompositionMethod::New 
[1] {
[1]     numberOfSubdomains 256;
[1]     method          scotch;
[1]     simpleCoeffs
[1]     {
[4]  Foam::decompositionMethod::New 
[4] {
[4]     numberOfSubdomains 256;
[4]     method          scotch;
[4]     simpleCoeffs
[4]     {
[4]         n               ( 4 1 1 );
[4]         delta           0.001;
[4]     }
[7]  Foam::decompositionMethod::New 
[7] {
[7]     numberOfSubdomains 256;
[7]     method          scotch;
[7]     simpleCoeffs
[7]     {
[7]         n               ( 4 1 1 );
[7]         delta           0.001;
[7]     }
[7]     hierarchicalCoeffs
[28]     simpleCoeffs
[28]     {
[28]         n               ( 4 1 1 );
[28]         delta           0.001;
[28]     }
[28]     hierarchicalCoeffs
[28]     {
[28]         n               ( 3 2 1 );
[28]         delta           0.001;
[28]         order           xyz;
[28]     }
[28]     manualCoeffs
[28]     {
[28]         dataFile        "cellDecomposition";
[28]     }
[28] }
[28] 
[28] Selecting decompositionMethod scotch
[10]  Foam::decompositionMethod::New 
[10] {
[10]     numberOfSubdomains 256;
[10]     method          scotch;
[10]     simpleCoeffs
[10]     {
[10]         n               ( 4 1 1 );
[10]         delta           0.001;
[10]     }
[10]     hierarchicalCoeffs
[10]     {
[10]         n               ( 3 2 1 );
[10]         delta           0.001;
[10]         order           xyz;
[10]     }
[10]     manualCoeffs
[10]     {
[10]         dataFile        "cellDecomposition";
[10]     }
[12]  Foam::decompositionMethod::New 
[12] {
[12]     numberOfSubdomains 256;
[12]     method          scotch;
[12]     simpleCoeffs
[12]     {
[12]         n               ( 4 1 1 );
[12]         delta           0.001;
[12]     }
[12]     hierarchicalCoeffs
[12]     {
[12]         n               ( 3 2 1 );
[12]         delta           0.001;
[12]         order           xyz;
[12]     }
[13]  Foam::decompositionMethod::New 
[13] {
[13]     numberOfSubdomains 256;
[13]     method          scotch;
[13]     simpleCoeffs
[13]     {
[13]         n               ( 4 1 1 );
[13]         delta           0.001;
[13]     }
[13]     hierarchicalCoeffs
[13]     {
[13]         n               ( 3 2 1 );
[13]         delta           0.001;
[13]         order           xyz;
[13]     }
[13]     manualCoeffs
[13]     {
[13]         dataFile        "cellDecomposition";
[13]     }
[8]     method          scotch;
[8]     simpleCoeffs
[8]     {
[8]         n               ( 4 1 1 );
[8]         delta           0.001;
[8]     }
[8]     hierarchicalCoeffs
[8]     {
[8]         n               ( 3 2 1 );
[8]         delta           0.001;
[8]         order           xyz;
[8]     }
[8]     manualCoeffs
[8]     {
[8]         dataFile        "cellDecomposition";
[8]     }
[8] }
[8] 
[8] Selecting decompositionMethod scotch
[19]  Foam::decompositionMethod::New 
[19] {
[19]     numberOfSubdomains 256;
[19]     method          scotch;
[19]     simpleCoeffs
[19]     {
[19]         n               ( 4 1 1 );
[19]         delta           0.001;
[19]     }
[19]     hierarchicalCoeffs
[19]     {
[19]         n               ( 3 2 1 );
[19]         delta           0.001;
[19]         order           xyz;
[19]     }
[19]     manualCoeffs
[19]     {
[21]  Foam::decompositionMethod::New 
[21] {
[21]     numberOfSubdomains 256;
[21]     method          scotch;
[21]     simpleCoeffs
[21]     {
[21]         n               ( 4 1 1 );
[21]         delta           0.001;
[21]     }
[21]     hierarchicalCoeffs
[21]     {
[21]         n               ( 3 2 1 );
[21]         delta           0.001;
[21]         order           xyz;
[21]     }
[21]     manualCoeffs
[21]     {
[23]  Foam::decompositionMethod::New 
[23] {
[23]     numberOfSubdomains 256;
[23]     method          scotch;
[23]     simpleCoeffs
[23]     {
[23]         n               ( 4 1 1 );
[23]         delta           0.001;
[23]     }
[23]     hierarchicalCoeffs
[23]     {
[23]         n               ( 3 2 1 );
[23]         delta           0.001;
[23]         order           xyz;
[23]     }
[23]     manualCoeffs
[23]     {
[23]         dataFile        "cellDecomposition";
[23]     }
[23] }
[23] 
[24]  Foam::decompositionMethod::New 
[24] {
[24]     numberOfSubdomains 256;
[24]     method          scotch;
[24]     simpleCoeffs
[24]     {
[24]         n               ( 4 1 1 );
[24]         delta           0.001;
[24]     }
[24]     hierarchicalCoeffs
[24]     {
[24]         n               ( 3 2 1 );
[24]         delta           0.001;
[24]         order           xyz;
[24]     }
[24]     manualCoeffs
[24]     {
[24]         dataFile        "cellDecomposition";
[24]     }
[24] }
[24] 
[26]  Foam::decompositionMethod::New 
[26] {
[26]     numberOfSubdomains 256;
[26]     method          scotch;
[26]     simpleCoeffs
[26]     {
[26]         n               ( 4 1 1 );
[26]         delta           0.001;
[26]     }
[26]     hierarchicalCoeffs
[26]     {
[26]         n               ( 3 2 1 );
[26]         delta           0.001;
[26]         order           xyz;
[26]     }
[26]     manualCoeffs
[26]     {
[26]         dataFile        "cellDecomposition";
[26]     }
[26] }
[26] 
[27]  Foam::decompositionMethod::New 
[27] {
[27]     numberOfSubdomains 256;
[27]     method          scotch;
[27]     simpleCoeffs
[27]     {
[27]         n               ( 4 1 1 );
[27]         delta           0.001;
[27]     }
[27]     hierarchicalCoeffs
[27]     {
[27]         n               ( 3 2 1 );
[27]         delta           0.001;
[27]         order           xyz;
[27]     }
[27]     manualCoeffs
[27]     {
[27]         dataFile        "cellDecomposition";
[27]     }
[27] }
[27] 
[17]     numberOfSubdomains 256;
[17]     method          scotch;
[17]     simpleCoeffs
[17]     {
[17]         n               ( 4 1 1 );
[17]         delta           0.001;
[17]     }
[17]     hierarchicalCoeffs
[17]     {
[17]         n               ( 3 2 1 );
[17]         delta           0.001;
[17]         order           xyz;
[17]     }
[17]     manualCoeffs
[17]     {
[17]         dataFile        "cellDecomposition";
[17]     }
[17] }
[17] 
[17] Selecting decompositionMethod scotch
[29]  Foam::decompositionMethod::New 
[29] {
[29]     numberOfSubdomains 256;
[29]     method          scotch;
[29]     simpleCoeffs
[29]     {
[29]         n               ( 4 1 1 );
[29]         delta           0.001;
[29]     }
[29]     hierarchicalCoeffs
[29]     {
[29]         n               ( 3 2 1 );
[29]         delta           0.001;
[29]         order           xyz;
[29]     }
[29]     manualCoeffs
[29]     {
[29]         dataFile        "cellDecomposition";
[29]     }
[29] }
[29] 
[29] Selecting decompositionMethod scotch
[30]  Foam::decompositionMethod::New 
[30] {
[30]     numberOfSubdomains 256;
[30]     method          scotch;
[30]     simpleCoeffs
[30]     {
[30]         n               ( 4 1 1 );
[30]         delta           0.001;
[30]     }
[30]     hierarchicalCoeffs
[30]     {
[30]         n               ( 3 2 1 );
[30]         delta           0.001;
[30]         order           xyz;
[30]     }
[30]     manualCoeffs
[30]     {
[30]         dataFile        "cellDecomposition";
[30]     }
[30] }
[30] 
[30] Selecting decompositionMethod scotch
[0]     }
[0]     hierarchicalCoeffs
[0]     {
[0]         n               ( 3 2 1 );
[0]         delta           0.001;
[0]         order           xyz;
[0]     }
[0]     manualCoeffs
[0]     {
[0]         dataFile        "cellDecomposition";
[0]     }
[0] }
[0] 
[0] Selecting decompositionMethod scotch
[2]  Foam::decompositionMethod::New 
[2] {
[2]     numberOfSubdomains 256;
[2]     method          scotch;
[3]  Foam::decompositionMethod::New 
[3] {
[3]     numberOfSubdomains 256;
[3]     method          scotch;
[3]     simpleCoeffs
[3]     {
[3]         n               ( 4 1 1 );
[3]         delta           0.001;
[3]     }
[3]     hierarchicalCoeffs
[3]     {
[3]         n               ( 3 2 1 );
[3]         delta           0.001;
[3]         order           xyz;
[3]     }
[3]     manualCoeffs
[3]     {
[3]         dataFile        "cellDecomposition";
[3]     }
[3] }
[3] 
[3] Selecting decompositionMethod scotch
[1]         n               ( 4 1 1 );
[1]         delta           0.001;
[1]     }
[1]     hierarchicalCoeffs
[1]     {
[1]         n               ( 3 2 1 );
[1]         delta           0.001;
[1]         order           xyz;
[1]     }
[1]     manualCoeffs
[1]     {
[1]         dataFile        "cellDecomposition";
[1]     }
[1] }
[1] 
[1] Selecting decompositionMethod scotch
[5]  Foam::decompositionMethod::New 
[5] {
[5]     numberOfSubdomains 256;
[5]     method          scotch;
[5]     simpleCoeffs
[5]     {
[5]         n               ( 4 1 1 );
[5]         delta           0.001;
[5]     }
[5]     hierarchicalCoeffs
[5]     {
[5]         n               ( 3 2 1 );
[5]         delta           0.001;
[5]         order           xyz;
[5]     }
[5]     manualCoeffs
[5]     {
[5]         dataFile        "cellDecomposition";
[5]     }
[5] }
[5] 
[5] Selecting decompositionMethod scotch
[6]  Foam::decompositionMethod::New 
[6] {
[6]     numberOfSubdomains 256;
[6]     method          scotch;
[6]     simpleCoeffs
[6]     {
[6]         n               ( 4 1 1 );
[6]         delta           0.001;
[6]     }
[6]     hierarchicalCoeffs
[6]     {
[6]         n               ( 3 2 1 );
[6]         delta           0.001;
[6]         order           xyz;
[6]     }
[6]     manualCoeffs
[6]     {
[6]         dataFile        "cellDecomposition";
[6]     }
[6] }
[6] 
[6] Selecting decompositionMethod scotch
[4]     hierarchicalCoeffs
[4]     {
[4]         n               ( 3 2 1 );
[4]         delta           0.001;
[4]         order           xyz;
[4]     }
[4]     manualCoeffs
[4]     {
[4]         dataFile        "cellDecomposition";
[4]     }
[4] }
[4] 
[4] Selecting decompositionMethod scotch
[7]     {
[7]         n               ( 3 2 1 );
[7]         delta           0.001;
[7]         order           xyz;
[7]     }
[7]     manualCoeffs
[7]     {
[7]         dataFile        "cellDecomposition";
[7]     }
[7] }
[7] 
[7] Selecting decompositionMethod scotch
[9]  Foam::decompositionMethod::New 
[9] {
[9]     numberOfSubdomains 256;
[9]     method          scotch;
[9]     simpleCoeffs
[9]     {
[9]         n               ( 4 1 1 );
[9]         delta           0.001;
[9]     }
[9]     hierarchicalCoeffs
[9]     {
[9]         n               ( 3 2 1 );
[9]         delta           0.001;
[9]         order           xyz;
[9]     }
[9]     manualCoeffs
[9]     {
[9]         dataFile        "cellDecomposition";
[9]     }
[9] }
[9] 
[9] Selecting decompositionMethod scotch
[11]  Foam::decompositionMethod::New 
[11] {
[11]     numberOfSubdomains 256;
[11]     method          scotch;
[11]     simpleCoeffs
[11]     {
[11]         n               ( 4 1 1 );
[11]         delta           0.001;
[11]     }
[11]     hierarchicalCoeffs
[11]     {
[11]         n               ( 3 2 1 );
[11]         delta           0.001;
[11]         order           xyz;
[11]     }
[11]     manualCoeffs
[11]     {
[11]         dataFile        "cellDecomposition";
[11]     }
[11] }
[11] 
[11] Selecting decompositionMethod scotch
[10] }
[10] 
[10] Selecting decompositionMethod scotch
[12]     manualCoeffs
[12]     {
[12]         dataFile        "cellDecomposition";
[12]     }
[12] }
[12] 
[12] Selecting decompositionMethod scotch
[14]  Foam::decompositionMethod::New 
[14] {
[14]     numberOfSubdomains 256;
[14]     method          scotch;
[14]     simpleCoeffs
[14]     {
[15]  Foam::decompositionMethod::New 
[15] {
[15]     numberOfSubdomains 256;
[15]     method          scotch;
[15]     simpleCoeffs
[15]     {
[15]         n               ( 4 1 1 );
[15]         delta           0.001;
[15]     }
[15]     hierarchicalCoeffs
[15]     {
[15]         n               ( 3 2 1 );
[15]         delta           0.001;
[15]         order           xyz;
[15]     }
[15]     manualCoeffs
[15]     {
[15]         dataFile        "cellDecomposition";
[15]     }
[15] }
[15] 
[15] Selecting decompositionMethod scotch
[16]  Foam::decompositionMethod::New 
[16] {
[16]     numberOfSubdomains 256;
[16]     method          scotch;
[16]     simpleCoeffs
[16]     {
[16]         n               ( 4 1 1 );
[16]         delta           0.001;
[16]     }
[16]     hierarchicalCoeffs
[16]     {
[16]         n               ( 3 2 1 );
[16]         delta           0.001;
[16]         order           xyz;
[16]     }
[16]     manualCoeffs
[16]     {
[16]         dataFile        "cellDecomposition";
[16]     }
[16] }
[16] 
[16] Selecting decompositionMethod scotch
[13] }
[13] 
[13] Selecting decompositionMethod scotch
[18]  Foam::decompositionMethod::New 
[18] {
[18]     numberOfSubdomains 256;
[18]     method          scotch;
[18]     simpleCoeffs
[18]     {
[18]         n               ( 4 1 1 );
[18]         delta           0.001;
[18]     }
[18]     hierarchicalCoeffs
[20]  Foam::decompositionMethod::New 
[20] {
[20]     numberOfSubdomains 256;
[20]     method          scotch;
[20]     simpleCoeffs
[20]     {
[20]         n               ( 4 1 1 );
[19]         dataFile        "cellDecomposition";
[19]     }
[19] }
[19] 
[19] Selecting decompositionMethod scotch
[22]  Foam::decompositionMethod::New 
[22] {
[22]     numberOfSubdomains 256;
[22]     method          scotch;
[22]     simpleCoeffs
[22]     {
[22]         n               ( 4 1 1 );
[22]         delta           0.001;
[22]     }
[22]     hierarchicalCoeffs
[22]     {
[22]         n               ( 3 2 1 );
[22]         delta           0.001;
[22]         order           xyz;
[22]     }
[22]     manualCoeffs
[22]     {
[22]         dataFile        "cellDecomposition";
[22]     }
[22] }
[22] 
[22] Selecting decompositionMethod scotch
[21]         dataFile        "cellDecomposition";
[21]     }
[21] }
[21] 
[21] Selecting decompositionMethod scotch
[23] Selecting decompositionMethod scotch
[24] Selecting decompositionMethod scotch
[26] Selecting decompositionMethod scotch
[27] Selecting decompositionMethod scotch
[31]  Foam::decompositionMethod::New 
[31] {
[31]     numberOfSubdomains 256;
[31]     method          scotch;
[31]     simpleCoeffs
[31]     {
[31]         n               ( 4 1 1 );
[31]         delta           0.001;
[31]     }
[31]     hierarchicalCoeffs
[31]     {
[31]         n               ( 3 2 1 );
Layer thickness specified as final layer and expansion ratio.
[2]     simpleCoeffs
[2]     {
[2]         n               ( 4 1 1 );
[2]         delta           0.001;
[2]     }
[2]     hierarchicalCoeffs
[2]     {
[2]         n               ( 3 2 1 );
[2]         delta           0.001;
[2]         order           xyz;
[2]     }
[2]     manualCoeffs
[14]         n               ( 4 1 1 );
[14]         delta           0.001;
[14]     }
[14]     hierarchicalCoeffs
[14]     {
[14]         n               ( 3 2 1 );
[14]         delta           0.001;
[14]         order           xyz;
[14]     }
[14]     manualCoeffs
[14]     {
[18]     {
[18]         n               ( 3 2 1 );
[18]         delta           0.001;
[18]         order           xyz;
[18]     }
[18]     manualCoeffs
[18]     {
[18]         dataFile        "cellDecomposition";
[18]     }
[18] }
[18] 
[20]         delta           0.001;
[20]     }
[20]     hierarchicalCoeffs
[20]     {
[20]         n               ( 3 2 1 );
[20]         delta           0.001;
[20]         order           xyz;
[20]     }
[20]     manualCoeffs
[20]     {
[25]  Foam::decompositionMethod::New 
[25] {
[25]     numberOfSubdomains 256;
[25]     method          scotch;
[25]     simpleCoeffs
[25]     {
[25]         n               ( 4 1 1 );
[25]         delta           0.001;
[25]     }
[31]         delta           0.001;
[31]         order           xyz;
[31]     }
[31]     manualCoeffs
[31]     {
[31]         dataFile        "cellDecomposition";
[31]     }
[31] }
[31] 
[25]     hierarchicalCoeffs
[25]     {
[25]         n               ( 3 2 1 );
[25]         delta           0.001;
[25]         order           xyz;
[25]     }
[25]     manualCoeffs
[25]     {
[2]     {
[2]         dataFile        "cellDecomposition";
[2]     }
[2] }
[2] 
[2] Selecting decompositionMethod scotch
[14]         dataFile        "cellDecomposition";
[14]     }
[14] }
[14] 
[14] Selecting decompositionMethod scotch
[18] Selecting decompositionMethod scotch
[20]         dataFile        "cellDecomposition";
[20]     }
[20] }
[20] 
[20] Selecting decompositionMethod scotch
[31] Selecting decompositionMethod scotch
[69]  Foam::decompositionMethod::New 
[69] {
[69]     numberOfSubdomains 256;
[69]     method          scotch;
[69]     simpleCoeffs
[69]     {
[69]         n               ( 4 1 1 );
[69]         delta           0.001;
[69]     }
[69]     hierarchicalCoeffs
[25]         dataFile        "cellDecomposition";
[25]     }
[25] }
[25] 
[25] Selecting decompositionMethod scotch

Refinement phase
----------------

[34]  Foam::decompositionMethod::New 
[34] {
[34]     numberOfSubdomains 256;
[34]     method          scotch;
[34]     simpleCoeffs
[34]     {
[34]         n               ( 4 1 1 );
[34]         delta           0.001;
[34]     }
[34]     hierarchicalCoeffs
[34]     {
[34]         n               ( 3 2 1 );
[34]         delta           0.001;
[34]         order           xyz;
[34]     }
[34]     manualCoeffs
[34]     {
[34]         dataFile        "cellDecomposition";
[34]     }
[34] }
[34] 
[34] Selecting decompositionMethod scotch
[102]  Foam::decompositionMethod::New 
[102] {
[102]     numberOfSubdomains 256;
[102]     method          scotch;
[102]     simpleCoeffs
[102]     {
[102]         n               ( 4 1 1 );
[102]         delta           0.001;
[102]     }
[102]     hierarchicalCoeffs
[102]     {
[102]         n               ( 3 2 1 );
[102]         delta           0.001;
[102]         order           xyz;
[102]     }
[102]     manualCoeffs
[102]     {
[102]         dataFile        "cellDecomposition";
[102]     }
[102] }
[102] 
[102] Selecting decompositionMethod scotch
[128]  Foam::decompositionMethod::New 
[128] {
[128]     numberOfSubdomains 256;
[128]     method          scotch;
[128]     simpleCoeffs
[128]     {
[128]         n               ( 4 1 1 );
[128]         delta           0.001;
[128]     }
[128]     hierarchicalCoeffs
[128]     {
[128]         n               ( 3 2 1 );
[128]         delta           0.001;
[128]         order           xyz;
[128]     }
[128]     manualCoeffs
[128]     {
[128]         dataFile        "cellDecomposition";
[128]     }
[128] }
[128] 
[128] Selecting decompositionMethod scotch
[79]  Foam::decompositionMethod::New 
[79] {
[79]     numberOfSubdomains 256;
[79]     method          scotch;
[79]     simpleCoeffs
[79]     {
[79]         n               ( 4 1 1 );
[79]         delta           0.001;
[79]     }
[79]     hierarchicalCoeffs
[79]     {
[79]         n               ( 3 2 1 );
[79]         delta           0.001;
[79]         order           xyz;
[79]     }
[79]     manualCoeffs
[79]     {
[81]  Foam::decompositionMethod::New 
[81] {
[81]     numberOfSubdomains 256;
[81]     method          scotch;
[81]     simpleCoeffs
[81]     {
[81]         n               ( 4 1 1 );
[81]         delta           0.001;
[81]     }
[81]     hierarchicalCoeffs
[81]     {
[81]         n               ( 3 2 1 );
[81]         delta           0.001;
[81]         order           xyz;
[81]     }
[81]     manualCoeffs
[81]     {
[81]         dataFile        "cellDecomposition";
[81]     }
[81] }
[42]  Foam::decompositionMethod::New 
[42] {
[42]     numberOfSubdomains 256;
[42]     method          scotch;
[42]     simpleCoeffs
[42]     {
[42]         n               ( 4 1 1 );
[42]         delta           0.001;
[42]     }
[42]     hierarchicalCoeffs
[42]     {
[42]         n               ( 3 2 1 );
[42]         delta           0.001;
[42]         order           xyz;
[42]     }
[42]     manualCoeffs
[42]     {
[42]         dataFile        "cellDecomposition";
[42]     }
[42] }
[42] 
[42] Selecting decompositionMethod scotch
[85]  Foam::decompositionMethod::New 
[85] {
[85]     numberOfSubdomains 256;
[85]     method          scotch;
[85]     simpleCoeffs
[85]     {
[85]         n               ( 4 1 1 );
[85]         delta           0.001;
[85]     }
[85]     hierarchicalCoeffs
[85]     {
[85]         n               ( 3 2 1 );
[85]         delta           0.001;
[85]         order           xyz;
[85]     }
[85]     manualCoeffs
[85]     {
[85]         dataFile        "cellDecomposition";
[85]     }
[85] }
[85] 
[104]  Foam::decompositionMethod::New 
[104] {
[104]     numberOfSubdomains 256;
[104]     method          scotch;
[104]     simpleCoeffs
[104]     {
[104]         n               ( 4 1 1 );
[104]         delta           0.001;
[104]     }
[104]     hierarchicalCoeffs
[104]     {
[104]         n               ( 3 2 1 );
[104]         delta           0.001;
[104]         order           xyz;
[104]     }
[104]     manualCoeffs
[104]     {
[104]         dataFile        "cellDecomposition";
[104]     }
[104] }
[104] 
[104] Selecting decompositionMethod scotch
[44]  Foam::decompositionMethod::New 
[44] {
[44]     numberOfSubdomains 256;
[44]     method          scotch;
[44]     simpleCoeffs
[44]     {
[44]         n               ( 4 1 1 );
[44]         delta           0.001;
[44]     }
[44]     hierarchicalCoeffs
[44]     {
[44]         n               ( 3 2 1 );
[44]         delta           0.001;
[44]         order           xyz;
[44]     }
[44]     manualCoeffs
[44]     {
[44]         dataFile        "cellDecomposition";
[44]     }
[44] }
[44] 
[44] Selecting decompositionMethod scotch
[93]  Foam::decompositionMethod::New 
[93] {
[93]     numberOfSubdomains 256;
[93]     method          scotch;
[93]     simpleCoeffs
[93]     {
[93]         n               ( 4 1 1 );
[93]         delta           0.001;
[93]     }
[93]     hierarchicalCoeffs
[93]     {
[93]         n               ( 3 2 1 );
[93]         delta           0.001;
[93]         order           xyz;
[93]     }
[93]     manualCoeffs
[93]     {
[93]         dataFile        "cellDecomposition";
[93]     }
[93] }
[93] 
[93] Selecting decompositionMethod scotch
[106]  Foam::decompositionMethod::New 
[106] {
[106]     numberOfSubdomains 256;
[106]     method          scotch;
[106]     simpleCoeffs
[106]     {
[106]         n               ( 4 1 1 );
[106]         delta           0.001;
[106]     }
[106]     hierarchicalCoeffs
[106]     {
[106]         n               ( 3 2 1 );
[106]         delta           0.001;
[106]         order           xyz;
[106]     }
[106]     manualCoeffs
[106]     {
[106]         dataFile        "cellDecomposition";
[106]     }
[106] }
[106] 
[106] Selecting decompositionMethod scotch
[45]  Foam::decompositionMethod::New 
[45] {
[45]     numberOfSubdomains 256;
[45]     method          scotch;
[45]     simpleCoeffs
[45]     {
[45]         n               ( 4 1 1 );
[45]         delta           0.001;
[45]     }
[45]     hierarchicalCoeffs
[45]     {
[45]         n               ( 3 2 1 );
[45]         delta           0.001;
[45]         order           xyz;
[45]     }
[45]     manualCoeffs
[45]     {
[45]         dataFile        "cellDecomposition";
[45]     }
[45] }
[45] 
[45] Selecting decompositionMethod scotch
[95]  Foam::decompositionMethod::New 
[95] {
[95]     numberOfSubdomains 256;
[95]     method          scotch;
[95]     simpleCoeffs
[95]     {
[95]         n               ( 4 1 1 );
[95]         delta           0.001;
[95]     }
[95]     hierarchicalCoeffs
[95]     {
[95]         n               ( 3 2 1 );
[95]         delta           0.001;
[95]         order           xyz;
[95]     }
[95]     manualCoeffs
[95]     {
[95]         dataFile        "cellDecomposition";
[95]     }
[95] }
[95] 
[108]  Foam::decompositionMethod::New 
[108] {
[108]     numberOfSubdomains 256;
[108]     method          scotch;
[108]     simpleCoeffs
[108]     {
[108]         n               ( 4 1 1 );
[108]         delta           0.001;
[108]     }
[108]     hierarchicalCoeffs
[108]     {
[108]         n               ( 3 2 1 );
[108]         delta           0.001;
[108]         order           xyz;
[108]     }
[108]     manualCoeffs
[108]     {
[108]         dataFile        "cellDecomposition";
[108]     }
[108] }
[108] 
[108] Selecting decompositionMethod scotch
[46]  Foam::decompositionMethod::New 
[46] {
[46]     numberOfSubdomains 256;
[46]     method          scotch;
[46]     simpleCoeffs
[46]     {
[46]         n               ( 4 1 1 );
[46]         delta           0.001;
[46]     }
[46]     hierarchicalCoeffs
[46]     {
[46]         n               ( 3 2 1 );
[46]         delta           0.001;
[46]         order           xyz;
[46]     }
[46]     manualCoeffs
[46]     {
[46]         dataFile        "cellDecomposition";
[46]     }
[46] }
[46] 
[46] Selecting decompositionMethod scotch
[64]  Foam::decompositionMethod::New 
[64] {
[64]     numberOfSubdomains 256;
[64]     method          scotch;
[64]     simpleCoeffs
[64]     {
[64]         n               ( 4 1 1 );
[64]         delta           0.001;
[64]     }
[64]     hierarchicalCoeffs
[64]     {
[64]         n               ( 3 2 1 );
[64]         delta           0.001;
[64]         order           xyz;
[64]     }
[64]     manualCoeffs
[64]     {
[64]         dataFile        "cellDecomposition";
[64]     }
[64] }
[64] 
[64] Selecting decompositionMethod scotch
[109]  Foam::decompositionMethod::New 
[109] {
[109]     numberOfSubdomains 256;
[109]     method          scotch;
[109]     simpleCoeffs
[109]     {
[109]         n               ( 4 1 1 );
[109]         delta           0.001;
[109]     }
[109]     hierarchicalCoeffs
[109]     {
[109]         n               ( 3 2 1 );
[109]         delta           0.001;
[109]         order           xyz;
[109]     }
[109]     manualCoeffs
[109]     {
[109]         dataFile        "cellDecomposition";
[109]     }
[109] }
[109] 
[109] Selecting decompositionMethod scotch
[49]  Foam::decompositionMethod::New 
[49] {
[49]     numberOfSubdomains 256;
[49]     method          scotch;
[49]     simpleCoeffs
[49]     {
[49]         n               ( 4 1 1 );
[49]         delta           0.001;
[49]     }
[49]     hierarchicalCoeffs
[49]     {
[49]         n               ( 3 2 1 );
[49]         delta           0.001;
[49]         order           xyz;
[49]     }
[49]     manualCoeffs
[49]     {
[49]         dataFile        "cellDecomposition";
[49]     }
[49] }
[49] 
[49] Selecting decompositionMethod scotch
[65]  Foam::decompositionMethod::New 
[65] {
[65]     numberOfSubdomains 256;
[65]     method          scotch;
[65]     simpleCoeffs
[65]     {
[65]         n               ( 4 1 1 );
[65]         delta           0.001;
[65]     }
[65]     hierarchicalCoeffs
[65]     {
[65]         n               ( 3 2 1 );
[65]         delta           0.001;
[65]         order           xyz;
[65]     }
[65]     manualCoeffs
[65]     {
[65]         dataFile        "cellDecomposition";
[65]     }
[65] }
[65] 
[65] Selecting decompositionMethod scotch
[110]  Foam::decompositionMethod::New 
[110] {
[110]     numberOfSubdomains 256;
[110]     method          scotch;
[110]     simpleCoeffs
[110]     {
[110]         n               ( 4 1 1 );
[110]         delta           0.001;
[110]     }
[110]     hierarchicalCoeffs
[110]     {
[110]         n               ( 3 2 1 );
[110]         delta           0.001;
[110]         order           xyz;
[110]     }
[110]     manualCoeffs
[110]     {
[110]         dataFile        "cellDecomposition";
[110]     }
[110] }
[110] 
[110] Selecting decompositionMethod scotch
[51]  Foam::decompositionMethod::New 
[51] {
[51]     numberOfSubdomains 256;
[51]     method          scotch;
[51]     simpleCoeffs
[51]     {
[51]         n               ( 4 1 1 );
[51]         delta           0.001;
[51]     }
[51]     hierarchicalCoeffs
[51]     {
[51]         n               ( 3 2 1 );
[51]         delta           0.001;
[51]         order           xyz;
[51]     }
[51]     manualCoeffs
[51]     {
[51]         dataFile        "cellDecomposition";
[51]     }
[51] }
[51] 
[51] Selecting decompositionMethod scotch
[227]  Foam::decompositionMethod::New 
[227] {
[227]     numberOfSubdomains 256;
[227]     method          scotch;
[227]     simpleCoeffs
[227]     {
[227]         n               ( 4 1 1 );
[227]         delta           0.001;
[227]     }
[227]     hierarchicalCoeffs
[227]     {
[227]         n               ( 3 2 1 );
[227]         delta           0.001;
[227]         order           xyz;
[227]     }
[227]     manualCoeffs
[227]     {
[227]         dataFile        "cellDecomposition";
[227]     }
[227] }
[227] 
[227] Selecting decompositionMethod scotch
[66]  Foam::decompositionMethod::New 
[66] {
[66]     numberOfSubdomains 256;
[66]     method          scotch;
[66]     simpleCoeffs
[66]     {
[66]         n               ( 4 1 1 );
[66]         delta           0.001;
[66]     }
[66]     hierarchicalCoeffs
[66]     {
[66]         n               ( 3 2 1 );
[66]         delta           0.001;
[66]         order           xyz;
[66]     }
[66]     manualCoeffs
[66]     {
[66]         dataFile        "cellDecomposition";
[66]     }
[66] }
[66] 
[66] Selecting decompositionMethod scotch
[111]  Foam::decompositionMethod::New 
[111] {
[111]     numberOfSubdomains 256;
[111]     method          scotch;
[111]     simpleCoeffs
[111]     {
[111]         n               ( 4 1 1 );
[111]         delta           0.001;
[111]     }
[111]     hierarchicalCoeffs
[111]     {
[111]         n               ( 3 2 1 );
[111]         delta           0.001;
[111]         order           xyz;
[111]     }
[111]     manualCoeffs
[111]     {
[111]         dataFile        "cellDecomposition";
[111]     }
[111] }
[111] 
[111] Selecting decompositionMethod scotch
[53]  Foam::decompositionMethod::New 
[53] {
[53]     numberOfSubdomains 256;
[53]     method          scotch;
[53]     simpleCoeffs
[53]     {
[53]         n               ( 4 1 1 );
[53]         delta           0.001;
[53]     }
[53]     hierarchicalCoeffs
[53]     {
[53]         n               ( 3 2 1 );
[53]         delta           0.001;
[53]         order           xyz;
[53]     }
[53]     manualCoeffs
[53]     {
[53]         dataFile        "cellDecomposition";
[53]     }
[53] }
[53] 
[53] Selecting decompositionMethod scotch
[132]  Foam::decompositionMethod::New 
[132] {
[132]     numberOfSubdomains 256;
[132]     method          scotch;
[132]     simpleCoeffs
[132]     {
[132]         n               ( 4 1 1 );
[132]         delta           0.001;
[132]     }
[132]     hierarchicalCoeffs
[132]     {
[132]         n               ( 3 2 1 );
[132]         delta           0.001;
[132]         order           xyz;
[132]     }
[132]     manualCoeffs
[132]     {
[132]         dataFile        "cellDecomposition";
[132]     }
[132] }
[132] 
[132] Selecting decompositionMethod scotch
[67]  Foam::decompositionMethod::New 
[67] {
[67]     numberOfSubdomains 256;
[67]     method          scotch;
[67]     simpleCoeffs
[67]     {
[67]         n               ( 4 1 1 );
[67]         delta           0.001;
[67]     }
[67]     hierarchicalCoeffs
[67]     {
[67]         n               ( 3 2 1 );
[67]         delta           0.001;
[67]         order           xyz;
[67]     }
[67]     manualCoeffs
[67]     {
[67]         dataFile        "cellDecomposition";
[67]     }
[67] }
[67] 
[67] Selecting decompositionMethod scotch
[112]  Foam::decompositionMethod::New 
[112] {
[112]     numberOfSubdomains 256;
[112]     method          scotch;
[112]     simpleCoeffs
[112]     {
[112]         n               ( 4 1 1 );
[112]         delta           0.001;
[112]     }
[112]     hierarchicalCoeffs
[112]     {
[112]         n               ( 3 2 1 );
[112]         delta           0.001;
[112]         order           xyz;
[112]     }
[112]     manualCoeffs
[112]     {
[112]         dataFile        "cellDecomposition";
[112]     }
[112] }
[112] 
[112] Selecting decompositionMethod scotch
[55]  Foam::decompositionMethod::New 
[55] {
[55]     numberOfSubdomains 256;
[55]     method          scotch;
[55]     simpleCoeffs
[55]     {
[55]         n               ( 4 1 1 );
[55]         delta           0.001;
[55]     }
[55]     hierarchicalCoeffs
[55]     {
[55]         n               ( 3 2 1 );
[55]         delta           0.001;
[55]         order           xyz;
[55]     }
[55]     manualCoeffs
[55]     {
[55]         dataFile        "cellDecomposition";
[55]     }
[55] }
[55] 
[55] Selecting decompositionMethod scotch
[138]  Foam::decompositionMethod::New 
[138] {
[138]     numberOfSubdomains 256;
[138]     method          scotch;
[138]     simpleCoeffs
[138]     {
[138]         n               ( 4 1 1 );
[138]         delta           0.001;
[138]     }
[138]     hierarchicalCoeffs
[138]     {
[138]         n               ( 3 2 1 );
[138]         delta           0.001;
[138]         order           xyz;
[138]     }
[138]     manualCoeffs
[138]     {
[138]         dataFile        "cellDecomposition";
[138]     }
[138] }
[138] 
[138] Selecting decompositionMethod scotch
[163]  Foam::decompositionMethod::New 
[163] {
[163]     numberOfSubdomains 256;
[163]     method          scotch;
[163]     simpleCoeffs
[163]     {
[163]         n               ( 4 1 1 );
[163]         delta           0.001;
[163]     }
[163]     hierarchicalCoeffs
[163]     {
[163]         n               ( 3 2 1 );
[163]         delta           0.001;
[163]         order           xyz;
[163]     }
[163]     manualCoeffs
[163]     {
[163]         dataFile        "cellDecomposition";
[163]     }
[163] }
[163] 
[163] Selecting decompositionMethod scotch
[68]  Foam::decompositionMethod::New 
[68] {
[68]     numberOfSubdomains 256;
[68]     method          scotch;
[68]     simpleCoeffs
[68]     {
[68]         n               ( 4 1 1 );
[68]         delta           0.001;
[68]     }
[68]     hierarchicalCoeffs
[68]     {
[68]         n               ( 3 2 1 );
[68]         delta           0.001;
[68]         order           xyz;
[68]     }
[68]     manualCoeffs
[68]     {
[68]         dataFile        "cellDecomposition";
[68]     }
[68] }
[68] 
[68] Selecting decompositionMethod scotch
[193]  Foam::decompositionMethod::New 
[193] {
[193]     numberOfSubdomains 256;
[193]     method          scotch;
[193]     simpleCoeffs
[193]     {
[193]         n               ( 4 1 1 );
[193]         delta           0.001;
[193]     }
[193]     hierarchicalCoeffs
[193]     {
[193]         n               ( 3 2 1 );
[193]         delta           0.001;
[193]         order           xyz;
[193]     }
[193]     manualCoeffs
[193]     {
[193]         dataFile        "cellDecomposition";
[193]     }
[193] }
[193] 
[193] Selecting decompositionMethod scotch
[113]  Foam::decompositionMethod::New 
[113] {
[113]     numberOfSubdomains 256;
[113]     method          scotch;
[113]     simpleCoeffs
[113]     {
[113]         n               ( 4 1 1 );
[113]         delta           0.001;
[113]     }
[113]     hierarchicalCoeffs
[113]     {
[113]         n               ( 3 2 1 );
[113]         delta           0.001;
[113]         order           xyz;
[113]     }
[113]     manualCoeffs
[113]     {
[113]         dataFile        "cellDecomposition";
[113]     }
[113] }
[113] 
[113] Selecting decompositionMethod scotch
[56]  Foam::decompositionMethod::New 
[56] {
[56]     numberOfSubdomains 256;
[56]     method          scotch;
[56]     simpleCoeffs
[56]     {
[56]         n               ( 4 1 1 );
[56]         delta           0.001;
[56]     }
[56]     hierarchicalCoeffs
[56]     {
[56]         n               ( 3 2 1 );
[56]         delta           0.001;
[56]         order           xyz;
[56]     }
[56]     manualCoeffs
[56]     {
[56]         dataFile        "cellDecomposition";
[56]     }
[56] }
[56] 
[56] Selecting decompositionMethod scotch
[140]  Foam::decompositionMethod::New 
[140] {
[140]     numberOfSubdomains 256;
[140]     method          scotch;
[140]     simpleCoeffs
[140]     {
[140]         n               ( 4 1 1 );
[140]         delta           0.001;
[140]     }
[140]     hierarchicalCoeffs
[140]     {
[140]         n               ( 3 2 1 );
[140]         delta           0.001;
[140]         order           xyz;
[140]     }
[140]     manualCoeffs
[140]     {
[140]         dataFile        "cellDecomposition";
[140]     }
[140] }
[140] 
[140] Selecting decompositionMethod scotch
[70]  Foam::decompositionMethod::New 
[70] {
[70]     numberOfSubdomains 256;
[70]     method          scotch;
[70]     simpleCoeffs
[70]     {
[70]         n               ( 4 1 1 );
[70]         delta           0.001;
[70]     }
[70]     hierarchicalCoeffs
[70]     {
[70]         n               ( 3 2 1 );
[70]         delta           0.001;
[70]         order           xyz;
[70]     }
[70]     manualCoeffs
[70]     {
[70]         dataFile        "cellDecomposition";
[70]     }
[70] }
[70] 
[70] Selecting decompositionMethod scotch
[114]  Foam::decompositionMethod::New 
[114] {
[114]     numberOfSubdomains 256;
[114]     method          scotch;
[114]     simpleCoeffs
[114]     {
[114]         n               ( 4 1 1 );
[114]         delta           0.001;
[114]     }
[114]     hierarchicalCoeffs
[114]     {
[114]         n               ( 3 2 1 );
[114]         delta           0.001;
[114]         order           xyz;
[114]     }
[114]     manualCoeffs
[114]     {
[114]         dataFile        "cellDecomposition";
[114]     }
[114] }
[114] 
[114] Selecting decompositionMethod scotch
[57]  Foam::decompositionMethod::New 
[57] {
[57]     numberOfSubdomains 256;
[57]     method          scotch;
[57]     simpleCoeffs
[57]     {
[57]         n               ( 4 1 1 );
[57]         delta           0.001;
[57]     }
[57]     hierarchicalCoeffs
[57]     {
[57]         n               ( 3 2 1 );
[57]         delta           0.001;
[57]         order           xyz;
[57]     }
[57]     manualCoeffs
[57]     {
[57]         dataFile        "cellDecomposition";
[57]     }
[57] }
[57] 
[57] Selecting decompositionMethod scotch
[144]  Foam::decompositionMethod::New 
[144] {
[144]     numberOfSubdomains 256;
[144]     method          scotch;
[144]     simpleCoeffs
[144]     {
[144]         n               ( 4 1 1 );
[144]         delta           0.001;
[144]     }
[144]     hierarchicalCoeffs
[144]     {
[144]         n               ( 3 2 1 );
[144]         delta           0.001;
[144]         order           xyz;
[144]     }
[144]     manualCoeffs
[144]     {
[144]         dataFile        "cellDecomposition";
[144]     }
[144] }
[144] 
[144] Selecting decompositionMethod scotch
[228]  Foam::decompositionMethod::New 
[228] {
[228]     numberOfSubdomains 256;
[228]     method          scotch;
[228]     simpleCoeffs
[228]     {
[228]         n               ( 4 1 1 );
[228]         delta           0.001;
[228]     }
[228]     hierarchicalCoeffs
[228]     {
[228]         n               ( 3 2 1 );
[228]         delta           0.001;
[228]         order           xyz;
[228]     }
[228]     manualCoeffs
[228]     {
[228]         dataFile        "cellDecomposition";
[228]     }
[228] }
[228] 
[228] Selecting decompositionMethod scotch
[71]  Foam::decompositionMethod::New 
[71] {
[71]     numberOfSubdomains 256;
[71]     method          scotch;
[71]     simpleCoeffs
[71]     {
[71]         n               ( 4 1 1 );
[71]         delta           0.001;
[71]     }
[71]     hierarchicalCoeffs
[71]     {
[71]         n               ( 3 2 1 );
[71]         delta           0.001;
[71]         order           xyz;
[71]     }
[71]     manualCoeffs
[71]     {
[71]         dataFile        "cellDecomposition";
[71]     }
[71] }
[71] 
[71] Selecting decompositionMethod scotch
[195]  Foam::decompositionMethod::New 
[195] {
[195]     numberOfSubdomains 256;
[195]     method          scotch;
[195]     simpleCoeffs
[195]     {
[195]         n               ( 4 1 1 );
[195]         delta           0.001;
[195]     }
[195]     hierarchicalCoeffs
[195]     {
[195]         n               ( 3 2 1 );
[195]         delta           0.001;
[195]         order           xyz;
[195]     }
[195]     manualCoeffs
[195]     {
[195]         dataFile        "cellDecomposition";
[195]     }
[195] }
[195] 
[195] Selecting decompositionMethod scotch
[120]  Foam::decompositionMethod::New 
[120] {
[120]     numberOfSubdomains 256;
[120]     method          scotch;
[120]     simpleCoeffs
[120]     {
[120]         n               ( 4 1 1 );
[120]         delta           0.001;
[120]     }
[120]     hierarchicalCoeffs
[120]     {
[120]         n               ( 3 2 1 );
[120]         delta           0.001;
[120]         order           xyz;
[120]     }
[120]     manualCoeffs
[120]     {
[120]         dataFile        "cellDecomposition";
[120]     }
[120] }
[120] 
[120] Selecting decompositionMethod scotch
[58]  Foam::decompositionMethod::New 
[58] {
[58]     numberOfSubdomains 256;
[58]     method          scotch;
[58]     simpleCoeffs
[58]     {
[58]         n               ( 4 1 1 );
[58]         delta           0.001;
[58]     }
[58]     hierarchicalCoeffs
[58]     {
[58]         n               ( 3 2 1 );
[58]         delta           0.001;
[58]         order           xyz;
[58]     }
[58]     manualCoeffs
[58]     {
[58]         dataFile        "cellDecomposition";
[58]     }
[58] }
[58] 
[58] Selecting decompositionMethod scotch
[148]  Foam::decompositionMethod::New 
[148] {
[148]     numberOfSubdomains 256;
[148]     method          scotch;
[148]     simpleCoeffs
[148]     {
[148]         n               ( 4 1 1 );
[148]         delta           0.001;
[148]     }
[148]     hierarchicalCoeffs
[148]     {
[148]         n               ( 3 2 1 );
[148]         delta           0.001;
[148]         order           xyz;
[148]     }
[148]     manualCoeffs
[148]     {
[148]         dataFile        "cellDecomposition";
[148]     }
[148] }
[148] 
[148] Selecting decompositionMethod scotch
[166]  Foam::decompositionMethod::New 
[166] {
[166]     numberOfSubdomains 256;
[166]     method          scotch;
[166]     simpleCoeffs
[166]     {
[166]         n               ( 4 1 1 );
[166]         delta           0.001;
[166]     }
[166]     hierarchicalCoeffs
[166]     {
[166]         n               ( 3 2 1 );
[166]         delta           0.001;
[166]         order           xyz;
[166]     }
[166]     manualCoeffs
[166]     {
[166]         dataFile        "cellDecomposition";
[166]     }
[166] }
[166] 
[166] Selecting decompositionMethod scotch
[229]  Foam::decompositionMethod::New 
[229] {
[229]     numberOfSubdomains 256;
[229]     method          scotch;
[229]     simpleCoeffs
[229]     {
[229]         n               ( 4 1 1 );
[229]         delta           0.001;
[229]     }
[229]     hierarchicalCoeffs
[229]     {
[229]         n               ( 3 2 1 );
[229]         delta           0.001;
[229]         order           xyz;
[229]     }
[229]     manualCoeffs
[229]     {
[229]         dataFile        "cellDecomposition";
[229]     }
[229] }
[229] 
[229] Selecting decompositionMethod scotch
[72]  Foam::decompositionMethod::New 
[72] {
[72]     numberOfSubdomains 256;
[72]     method          scotch;
[72]     simpleCoeffs
[72]     {
[72]         n               ( 4 1 1 );
[72]         delta           0.001;
[72]     }
[72]     hierarchicalCoeffs
[72]     {
[72]         n               ( 3 2 1 );
[72]         delta           0.001;
[72]         order           xyz;
[72]     }
[72]     manualCoeffs
[72]     {
[72]         dataFile        "cellDecomposition";
[72]     }
[72] }
[72] 
[72] Selecting decompositionMethod scotch
[197]  Foam::decompositionMethod::New 
[197] {
[197]     numberOfSubdomains 256;
[197]     method          scotch;
[197]     simpleCoeffs
[197]     {
[197]         n               ( 4 1 1 );
[197]         delta           0.001;
[197]     }
[197]     hierarchicalCoeffs
[197]     {
[197]         n               ( 3 2 1 );
[197]         delta           0.001;
[197]         order           xyz;
[197]     }
[197]     manualCoeffs
[197]     {
[197]         dataFile        "cellDecomposition";
[197]     }
[197] }
[197] 
[197] Selecting decompositionMethod scotch
[121]  Foam::decompositionMethod::New 
[121] {
[121]     numberOfSubdomains 256;
[121]     method          scotch;
[121]     simpleCoeffs
[121]     {
[121]         n               ( 4 1 1 );
[121]         delta           0.001;
[121]     }
[121]     hierarchicalCoeffs
[121]     {
[121]         n               ( 3 2 1 );
[121]         delta           0.001;
[121]         order           xyz;
[121]     }
[121]     manualCoeffs
[121]     {
[121]         dataFile        "cellDecomposition";
[121]     }
[121] }
[121] 
[121] Selecting decompositionMethod scotch
[59]  Foam::decompositionMethod::New 
[59] {
[59]     numberOfSubdomains 256;
[59]     method          scotch;
[59]     simpleCoeffs
[59]     {
[59]         n               ( 4 1 1 );
[59]         delta           0.001;
[59]     }
[59]     hierarchicalCoeffs
[59]     {
[59]         n               ( 3 2 1 );
[59]         delta           0.001;
[59]         order           xyz;
[59]     }
[59]     manualCoeffs
[59]     {
[59]         dataFile        "cellDecomposition";
[59]     }
[59] }
[59] 
[59] Selecting decompositionMethod scotch
[151]  Foam::decompositionMethod::New 
[151] {
[151]     numberOfSubdomains 256;
[151]     method          scotch;
[151]     simpleCoeffs
[151]     {
[151]         n               ( 4 1 1 );
[151]         delta           0.001;
[151]     }
[151]     hierarchicalCoeffs
[151]     {
[151]         n               ( 3 2 1 );
[151]         delta           0.001;
[151]         order           xyz;
[151]     }
[151]     manualCoeffs
[151]     {
[151]         dataFile        "cellDecomposition";
[151]     }
[151] }
[151] 
[151] Selecting decompositionMethod scotch
[168]  Foam::decompositionMethod::New 
[168] {
[168]     numberOfSubdomains 256;
[168]     method          scotch;
[168]     simpleCoeffs
[168]     {
[168]         n               ( 4 1 1 );
[168]         delta           0.001;
[168]     }
[168]     hierarchicalCoeffs
[168]     {
[168]         n               ( 3 2 1 );
[168]         delta           0.001;
[168]         order           xyz;
[168]     }
[168]     manualCoeffs
[168]     {
[168]         dataFile        "cellDecomposition";
[168]     }
[168] }
[168] 
[168] Selecting decompositionMethod scotch
[232]  Foam::decompositionMethod::New 
[232] {
[232]     numberOfSubdomains 256;
[232]     method          scotch;
[232]     simpleCoeffs
[232]     {
[232]         n               ( 4 1 1 );
[232]         delta           0.001;
[232]     }
[232]     hierarchicalCoeffs
[232]     {
[232]         n               ( 3 2 1 );
[232]         delta           0.001;
[232]         order           xyz;
[232]     }
[232]     manualCoeffs
[232]     {
[232]         dataFile        "cellDecomposition";
[232]     }
[232] }
[232] 
[232] Selecting decompositionMethod scotch
[73]  Foam::decompositionMethod::New 
[73] {
[73]     numberOfSubdomains 256;
[73]     method          scotch;
[73]     simpleCoeffs
[73]     {
[73]         n               ( 4 1 1 );
[73]         delta           0.001;
[73]     }
[73]     hierarchicalCoeffs
[73]     {
[73]         n               ( 3 2 1 );
[73]         delta           0.001;
[73]         order           xyz;
[73]     }
[73]     manualCoeffs
[73]     {
[73]         dataFile        "cellDecomposition";
[73]     }
[73] }
[73] 
[73] Selecting decompositionMethod scotch
[201]  Foam::decompositionMethod::New 
[201] {
[201]     numberOfSubdomains 256;
[201]     method          scotch;
[201]     simpleCoeffs
[201]     {
[201]         n               ( 4 1 1 );
[201]         delta           0.001;
[201]     }
[201]     hierarchicalCoeffs
[201]     {
[201]         n               ( 3 2 1 );
[201]         delta           0.001;
[201]         order           xyz;
[201]     }
[201]     manualCoeffs
[201]     {
[201]         dataFile        "cellDecomposition";
[201]     }
[201] }
[201] 
[201] Selecting decompositionMethod scotch
[122]  Foam::decompositionMethod::New 
[122] {
[122]     numberOfSubdomains 256;
[122]     method          scotch;
[122]     simpleCoeffs
[122]     {
[122]         n               ( 4 1 1 );
[122]         delta           0.001;
[122]     }
[122]     hierarchicalCoeffs
[122]     {
[122]         n               ( 3 2 1 );
[122]         delta           0.001;
[122]         order           xyz;
[122]     }
[122]     manualCoeffs
[122]     {
[122]         dataFile        "cellDecomposition";
[122]     }
[122] }
[122] 
[122] Selecting decompositionMethod scotch
[63]  Foam::decompositionMethod::New 
[63] {
[63]     numberOfSubdomains 256;
[63]     method          scotch;
[63]     simpleCoeffs
[63]     {
[63]         n               ( 4 1 1 );
[63]         delta           0.001;
[63]     }
[63]     hierarchicalCoeffs
[63]     {
[63]         n               ( 3 2 1 );
[63]         delta           0.001;
[63]         order           xyz;
[63]     }
[63]     manualCoeffs
[63]     {
[63]         dataFile        "cellDecomposition";
[63]     }
[63] }
[63] 
[63] Selecting decompositionMethod scotch
[152]  Foam::decompositionMethod::New 
[152] {
[152]     numberOfSubdomains 256;
[152]     method          scotch;
[152]     simpleCoeffs
[152]     {
[152]         n               ( 4 1 1 );
[152]         delta           0.001;
[152]     }
[152]     hierarchicalCoeffs
[152]     {
[152]         n               ( 3 2 1 );
[152]         delta           0.001;
[152]         order           xyz;
[152]     }
[152]     manualCoeffs
[152]     {
[152]         dataFile        "cellDecomposition";
[152]     }
[152] }
[152] 
[152] Selecting decompositionMethod scotch
[169]  Foam::decompositionMethod::New 
[169] {
[169]     numberOfSubdomains 256;
[169]     method          scotch;
[169]     simpleCoeffs
[169]     {
[169]         n               ( 4 1 1 );
[169]         delta           0.001;
[169]     }
[169]     hierarchicalCoeffs
[169]     {
[169]         n               ( 3 2 1 );
[169]         delta           0.001;
[169]         order           xyz;
[169]     }
[169]     manualCoeffs
[169]     {
[169]         dataFile        "cellDecomposition";
[169]     }
[169] }
[169] 
[169] Selecting decompositionMethod scotch
[235]  Foam::decompositionMethod::New 
[235] {
[235]     numberOfSubdomains 256;
[235]     method          scotch;
[235]     simpleCoeffs
[235]     {
[235]         n               ( 4 1 1 );
[235]         delta           0.001;
[235]     }
[235]     hierarchicalCoeffs
[235]     {
[235]         n               ( 3 2 1 );
[235]         delta           0.001;
[235]         order           xyz;
[235]     }
[235]     manualCoeffs
[235]     {
[235]         dataFile        "cellDecomposition";
[235]     }
[235] }
[235] 
[235] Selecting decompositionMethod scotch
[74]  Foam::decompositionMethod::New 
[74] {
[74]     numberOfSubdomains 256;
[74]     method          scotch;
[74]     simpleCoeffs
[74]     {
[74]         n               ( 4 1 1 );
[74]         delta           0.001;
[74]     }
[74]     hierarchicalCoeffs
[74]     {
[74]         n               ( 3 2 1 );
[74]         delta           0.001;
[74]         order           xyz;
[74]     }
[74]     manualCoeffs
[74]     {
[74]         dataFile        "cellDecomposition";
[74]     }
[74] }
[74] 
[74] Selecting decompositionMethod scotch
[202]  Foam::decompositionMethod::New 
[202] {
[202]     numberOfSubdomains 256;
[202]     method          scotch;
[202]     simpleCoeffs
[202]     {
[202]         n               ( 4 1 1 );
[202]         delta           0.001;
[202]     }
[202]     hierarchicalCoeffs
[202]     {
[202]         n               ( 3 2 1 );
[202]         delta           0.001;
[202]         order           xyz;
[202]     }
[202]     manualCoeffs
[202]     {
[202]         dataFile        "cellDecomposition";
[202]     }
[202] }
[202] 
[202] Selecting decompositionMethod scotch
[123]  Foam::decompositionMethod::New 
[123] {
[123]     numberOfSubdomains 256;
[123]     method          scotch;
[123]     simpleCoeffs
[123]     {
[123]         n               ( 4 1 1 );
[123]         delta           0.001;
[123]     }
[123]     hierarchicalCoeffs
[123]     {
[123]         n               ( 3 2 1 );
[123]         delta           0.001;
[123]         order           xyz;
[123]     }
[123]     manualCoeffs
[123]     {
[123]         dataFile        "cellDecomposition";
[123]     }
[123] }
[123] 
[123] Selecting decompositionMethod scotch
[32]  Foam::decompositionMethod::New 
[32] {
[32]     numberOfSubdomains 256;
[32]     method          scotch;
[32]     simpleCoeffs
[32]     {
[32]         n               ( 4 1 1 );
[32]         delta           0.001;
[32]     }
[32]     hierarchicalCoeffs
[32]     {
[32]         n               ( 3 2 1 );
[32]         delta           0.001;
[32]         order           xyz;
[32]     }
[32]     manualCoeffs
[32]     {
[32]         dataFile        "cellDecomposition";
[32]     }
[32] }
[32] 
[32] Selecting decompositionMethod scotch
[153]  Foam::decompositionMethod::New 
[153] {
[153]     numberOfSubdomains 256;
[153]     method          scotch;
[153]     simpleCoeffs
[153]     {
[153]         n               ( 4 1 1 );
[153]         delta           0.001;
[153]     }
[153]     hierarchicalCoeffs
[153]     {
[153]         n               ( 3 2 1 );
[153]         delta           0.001;
[153]         order           xyz;
[153]     }
[153]     manualCoeffs
[153]     {
[153]         dataFile        "cellDecomposition";
[153]     }
[153] }
[153] 
[153] Selecting decompositionMethod scotch
[170]  Foam::decompositionMethod::New 
[170] {
[170]     numberOfSubdomains 256;
[170]     method          scotch;
[170]     simpleCoeffs
[170]     {
[170]         n               ( 4 1 1 );
[170]         delta           0.001;
[170]     }
[170]     hierarchicalCoeffs
[170]     {
[170]         n               ( 3 2 1 );
[170]         delta           0.001;
[170]         order           xyz;
[170]     }
[170]     manualCoeffs
[170]     {
[170]         dataFile        "cellDecomposition";
[170]     }
[170] }
[170] 
[170] Selecting decompositionMethod scotch
[236]  Foam::decompositionMethod::New 
[236] {
[236]     numberOfSubdomains 256;
[236]     method          scotch;
[236]     simpleCoeffs
[236]     {
[236]         n               ( 4 1 1 );
[236]         delta           0.001;
[236]     }
[236]     hierarchicalCoeffs
[236]     {
[236]         n               ( 3 2 1 );
[236]         delta           0.001;
[236]         order           xyz;
[236]     }
[236]     manualCoeffs
[236]     {
[236]         dataFile        "cellDecomposition";
[236]     }
[236] }
[236] 
[236] Selecting decompositionMethod scotch
[75]  Foam::decompositionMethod::New 
[75] {
[75]     numberOfSubdomains 256;
[75]     method          scotch;
[75]     simpleCoeffs
[75]     {
[75]         n               ( 4 1 1 );
[75]         delta           0.001;
[75]     }
[75]     hierarchicalCoeffs
[75]     {
[75]         n               ( 3 2 1 );
[75]         delta           0.001;
[75]         order           xyz;
[75]     }
[75]     manualCoeffs
[75]     {
[75]         dataFile        "cellDecomposition";
[75]     }
[75] }
[75] 
[75] Selecting decompositionMethod scotch
[203]  Foam::decompositionMethod::New 
[203] {
[203]     numberOfSubdomains 256;
[203]     method          scotch;
[203]     simpleCoeffs
[203]     {
[203]         n               ( 4 1 1 );
[203]         delta           0.001;
[203]     }
[203]     hierarchicalCoeffs
[203]     {
[203]         n               ( 3 2 1 );
[203]         delta           0.001;
[203]         order           xyz;
[203]     }
[203]     manualCoeffs
[203]     {
[203]         dataFile        "cellDecomposition";
[203]     }
[203] }
[203] 
[203] Selecting decompositionMethod scotch
[124]  Foam::decompositionMethod::New 
[124] {
[124]     numberOfSubdomains 256;
[124]     method          scotch;
[124]     simpleCoeffs
[124]     {
[124]         n               ( 4 1 1 );
[124]         delta           0.001;
[124]     }
[124]     hierarchicalCoeffs
[124]     {
[124]         n               ( 3 2 1 );
[124]         delta           0.001;
[124]         order           xyz;
[124]     }
[124]     manualCoeffs
[124]     {
[124]         dataFile        "cellDecomposition";
[124]     }
[124] }
[124] 
[124] Selecting decompositionMethod scotch
[33]  Foam::decompositionMethod::New 
[33] {
[33]     numberOfSubdomains 256;
[33]     method          scotch;
[33]     simpleCoeffs
[33]     {
[33]         n               ( 4 1 1 );
[33]         delta           0.001;
[33]     }
[33]     hierarchicalCoeffs
[33]     {
[33]         n               ( 3 2 1 );
[33]         delta           0.001;
[33]         order           xyz;
[33]     }
[33]     manualCoeffs
[33]     {
[33]         dataFile        "cellDecomposition";
[33]     }
[33] }
[33] 
[33] Selecting decompositionMethod scotch
[154]  Foam::decompositionMethod::New 
[154] {
[154]     numberOfSubdomains 256;
[154]     method          scotch;
[154]     simpleCoeffs
[154]     {
[154]         n               ( 4 1 1 );
[154]         delta           0.001;
[154]     }
[154]     hierarchicalCoeffs
[154]     {
[154]         n               ( 3 2 1 );
[154]         delta           0.001;
[154]         order           xyz;
[154]     }
[154]     manualCoeffs
[154]     {
[154]         dataFile        "cellDecomposition";
[154]     }
[154] }
[154] 
[154] Selecting decompositionMethod scotch
[171]  Foam::decompositionMethod::New 
[171] {
[171]     numberOfSubdomains 256;
[171]     method          scotch;
[171]     simpleCoeffs
[171]     {
[171]         n               ( 4 1 1 );
[171]         delta           0.001;
[171]     }
[171]     hierarchicalCoeffs
[171]     {
[171]         n               ( 3 2 1 );
[171]         delta           0.001;
[171]         order           xyz;
[171]     }
[171]     manualCoeffs
[171]     {
[171]         dataFile        "cellDecomposition";
[171]     }
[171] }
[171] 
[171] Selecting decompositionMethod scotch
[237]  Foam::decompositionMethod::New 
[237] {
[237]     numberOfSubdomains 256;
[237]     method          scotch;
[237]     simpleCoeffs
[237]     {
[237]         n               ( 4 1 1 );
[237]         delta           0.001;
[237]     }
[237]     hierarchicalCoeffs
[237]     {
[237]         n               ( 3 2 1 );
[237]         delta           0.001;
[237]         order           xyz;
[237]     }
[237]     manualCoeffs
[237]     {
[237]         dataFile        "cellDecomposition";
[237]     }
[237] }
[76]  Foam::decompositionMethod::New 
[76] {
[76]     numberOfSubdomains 256;
[76]     method          scotch;
[76]     simpleCoeffs
[76]     {
[76]         n               ( 4 1 1 );
[76]         delta           0.001;
[76]     }
[76]     hierarchicalCoeffs
[76]     {
[76]         n               ( 3 2 1 );
[76]         delta           0.001;
[76]         order           xyz;
[76]     }
[76]     manualCoeffs
[76]     {
[76]         dataFile        "cellDecomposition";
[76]     }
[76] }
[76] 
[76] Selecting decompositionMethod scotch
[204]  Foam::decompositionMethod::New 
[204] {
[204]     numberOfSubdomains 256;
[204]     method          scotch;
[204]     simpleCoeffs
[204]     {
[204]         n               ( 4 1 1 );
[204]         delta           0.001;
[204]     }
[204]     hierarchicalCoeffs
[204]     {
[204]         n               ( 3 2 1 );
[204]         delta           0.001;
[204]         order           xyz;
[204]     }
[204]     manualCoeffs
[204]     {
[204]         dataFile        "cellDecomposition";
[204]     }
[204] }
[204] 
[204] Selecting decompositionMethod scotch
[125]  Foam::decompositionMethod::New 
[125] {
[125]     numberOfSubdomains 256;
[125]     method          scotch;
[125]     simpleCoeffs
[125]     {
[125]         n               ( 4 1 1 );
[125]         delta           0.001;
[125]     }
[125]     hierarchicalCoeffs
[125]     {
[125]         n               ( 3 2 1 );
[125]         delta           0.001;
[125]         order           xyz;
[125]     }
[125]     manualCoeffs
[125]     {
[125]         dataFile        "cellDecomposition";
[125]     }
[125] }
[125] 
[125] Selecting decompositionMethod scotch
[35]  Foam::decompositionMethod::New 
[35] {
[35]     numberOfSubdomains 256;
[35]     method          scotch;
[35]     simpleCoeffs
[35]     {
[35]         n               ( 4 1 1 );
[35]         delta           0.001;
[35]     }
[35]     hierarchicalCoeffs
[35]     {
[35]         n               ( 3 2 1 );
[35]         delta           0.001;
[35]         order           xyz;
[35]     }
[35]     manualCoeffs
[35]     {
[35]         dataFile        "cellDecomposition";
[35]     }
[35] }
[35] 
[35] Selecting decompositionMethod scotch
[155]  Foam::decompositionMethod::New 
[155] {
[155]     numberOfSubdomains 256;
[155]     method          scotch;
[155]     simpleCoeffs
[155]     {
[155]         n               ( 4 1 1 );
[155]         delta           0.001;
[155]     }
[155]     hierarchicalCoeffs
[155]     {
[155]         n               ( 3 2 1 );
[155]         delta           0.001;
[155]         order           xyz;
[155]     }
[155]     manualCoeffs
[155]     {
[155]         dataFile        "cellDecomposition";
[155]     }
[155] }
[155] 
[155] Selecting decompositionMethod scotch
[172]  Foam::decompositionMethod::New 
[172] {
[172]     numberOfSubdomains 256;
[172]     method          scotch;
[172]     simpleCoeffs
[172]     {
[172]         n               ( 4 1 1 );
[172]         delta           0.001;
[172]     }
[172]     hierarchicalCoeffs
[172]     {
[172]         n               ( 3 2 1 );
[172]         delta           0.001;
[172]         order           xyz;
[172]     }
[172]     manualCoeffs
[172]     {
[172]         dataFile        "cellDecomposition";
[172]     }
[172] }
[172] 
[172] Selecting decompositionMethod scotch
[238]  Foam::decompositionMethod::New 
[238] {
[238]     numberOfSubdomains 256;
[238]     method          scotch;
[238]     simpleCoeffs
[238]     {
[238]         n               ( 4 1 1 );
[238]         delta           0.001;
[238]     }
[238]     hierarchicalCoeffs
[238]     {
[238]         n               ( 3 2 1 );
[238]         delta           0.001;
[238]         order           xyz;
[238]     }
[238]     manualCoeffs
[238]     {
[238]         dataFile        "cellDecomposition";
[238]     }
[238] }
[238] 
[238] Selecting decompositionMethod scotch
[77]  Foam::decompositionMethod::New 
[77] {
[77]     numberOfSubdomains 256;
[77]     method          scotch;
[77]     simpleCoeffs
[77]     {
[77]         n               ( 4 1 1 );
[77]         delta           0.001;
[77]     }
[77]     hierarchicalCoeffs
[77]     {
[77]         n               ( 3 2 1 );
[77]         delta           0.001;
[77]         order           xyz;
[77]     }
[77]     manualCoeffs
[77]     {
[77]         dataFile        "cellDecomposition";
[77]     }
[77] }
[77] 
[77] Selecting decompositionMethod scotch
[205]  Foam::decompositionMethod::New 
[205] {
[205]     numberOfSubdomains 256;
[205]     method          scotch;
[205]     simpleCoeffs
[205]     {
[205]         n               ( 4 1 1 );
[205]         delta           0.001;
[205]     }
[205]     hierarchicalCoeffs
[205]     {
[205]         n               ( 3 2 1 );
[205]         delta           0.001;
[205]         order           xyz;
[205]     }
[205]     manualCoeffs
[205]     {
[205]         dataFile        "cellDecomposition";
[205]     }
[205] }
[205] 
[205] Selecting decompositionMethod scotch
[126]  Foam::decompositionMethod::New 
[126] {
[126]     numberOfSubdomains 256;
[126]     method          scotch;
[126]     simpleCoeffs
[126]     {
[126]         n               ( 4 1 1 );
[126]         delta           0.001;
[126]     }
[126]     hierarchicalCoeffs
[126]     {
[126]         n               ( 3 2 1 );
[126]         delta           0.001;
[126]         order           xyz;
[126]     }
[126]     manualCoeffs
[126]     {
[126]         dataFile        "cellDecomposition";
[126]     }
[126] }
[126] 
[126] Selecting decompositionMethod scotch
[36]  Foam::decompositionMethod::New 
[36] {
[36]     numberOfSubdomains 256;
[36]     method          scotch;
[36]     simpleCoeffs
[36]     {
[36]         n               ( 4 1 1 );
[36]         delta           0.001;
[36]     }
[36]     hierarchicalCoeffs
[36]     {
[36]         n               ( 3 2 1 );
[36]         delta           0.001;
[36]         order           xyz;
[36]     }
[36]     manualCoeffs
[36]     {
[36]         dataFile        "cellDecomposition";
[36]     }
[36] }
[36] 
[36] Selecting decompositionMethod scotch
[157]  Foam::decompositionMethod::New 
[157] {
[157]     numberOfSubdomains 256;
[157]     method          scotch;
[157]     simpleCoeffs
[157]     {
[157]         n               ( 4 1 1 );
[157]         delta           0.001;
[157]     }
[157]     hierarchicalCoeffs
[157]     {
[157]         n               ( 3 2 1 );
[157]         delta           0.001;
[157]         order           xyz;
[157]     }
[157]     manualCoeffs
[157]     {
[157]         dataFile        "cellDecomposition";
[157]     }
[157] }
[157] 
[157] Selecting decompositionMethod scotch
[173]  Foam::decompositionMethod::New 
[173] {
[173]     numberOfSubdomains 256;
[173]     method          scotch;
[173]     simpleCoeffs
[173]     {
[173]         n               ( 4 1 1 );
[173]         delta           0.001;
[173]     }
[173]     hierarchicalCoeffs
[173]     {
[173]         n               ( 3 2 1 );
[173]         delta           0.001;
[173]         order           xyz;
[173]     }
[173]     manualCoeffs
[173]     {
[173]         dataFile        "cellDecomposition";
[173]     }
[173] }
[173] 
[173] Selecting decompositionMethod scotch
[239]  Foam::decompositionMethod::New 
[239] {
[239]     numberOfSubdomains 256;
[239]     method          scotch;
[239]     simpleCoeffs
[239]     {
[239]         n               ( 4 1 1 );
[239]         delta           0.001;
[239]     }
[239]     hierarchicalCoeffs
[239]     {
[239]         n               ( 3 2 1 );
[239]         delta           0.001;
[239]         order           xyz;
[239]     }
[239]     manualCoeffs
[239]     {
[239]         dataFile        "cellDecomposition";
[239]     }
[239] }
[239] 
[...]
    non-orthogonality > 65  degrees                        : 0
    faces with face pyramid volume < 1e-13                 : 0
    faces with face-decomposition tet quality < 1e-15      : 0
    faces with concavity > 80  degrees                     : 0
    faces with skewness > 4   (internal) or 20  (boundary) : 0
    faces with interpolation weights (0..1)  < 0.02        : 0
    faces with volume ratio of neighbour cells < 0.01      : 0
    faces with face twist < 0.02                           : 0
    faces on cells with determinant < 0.001                : 0
displacementMedialAxis : Successfully moved mesh
displacementMedialAxis : Finished moving mesh ...
truncateDisplacement : Unextruded 0 faces due to non-consecutive vertices being extruded.
truncateDisplacement : Unextruded 0 faces due to stringed edges with inconsistent extrusion.

Setting up information for layer truncation ...

Checking mesh with layer ...
Checking faces in error :
    non-orthogonality > 65  degrees                        : 2
    faces with face pyramid volume < 1e-13                 : 0
    faces with face-decomposition tet quality < 1e-15      : 1
    faces with concavity > 80  degrees                     : 0
    faces with skewness > 4   (internal) or 20  (boundary) : 0
    faces with interpolation weights (0..1)  < 0.02        : 0
    faces with volume ratio of neighbour cells < 0.01      : 0
    faces with face twist < 0.02                           : 0
    faces on cells with determinant < 0.001                : 0
Detected 3 illegal faces (concave, zero area or negative cell pyramid volume)
Extruding 142353 out of 183114 faces (77.7401%). Removed extrusion at 3 faces.
Added 142357 out of 183114 cells (77.7423%).


Layer addition iteration 22
--------------------------

Determining displacement for added points according to pointNormal ...
Detected 0 points with point normal pointing through faces.
Reset displacement at 0 points to average of surrounding points.

displacementMedialAxis : Smoothing using Medial Axis ...
displacementMedialAxis : Reducing layer thickness at 520 nodes where thickness to medial axis distance is large 
displacementMedialAxis : Removing isolated regions ...
displacementMedialAxis : Number of isolated points extrusion stopped : 2
displacementMedialAxis : Smoothing field ...
    Iteration 0   residual 4.65229e-05
displacementMedialAxis : Moving mesh ...
displacementMedialAxis : Iteration 0
Moving mesh using displacement scaling : min:1  max:1
Checking faces in error :
    non-orthogonality > 65  degrees                        : 0
    faces with face pyramid volume < 1e-13                 : 0
    faces with face-decomposition tet quality < 1e-15      : 22
    faces with concavity > 80  degrees                     : 0
    faces with skewness > 4   (internal) or 20  (boundary) : 0
    faces with interpolation weights (0..1)  < 0.02        : 0
    faces with volume ratio of neighbour cells < 0.01      : 0
    faces with face twist < 0.02                           : 1
    faces on cells with determinant < 0.001                : 0
displacementMedialAxis : Iteration 1
Moving mesh using displacement scaling : min:0.75  max:1
Checking faces in error :
    non-orthogonality > 65  degrees                        : 0
    faces with face pyramid volume < 1e-13                 : 0
    faces with face-decomposition tet quality < 1e-15      : 10
    faces with concavity > 80  degrees                     : 0
    faces with skewness > 4   (internal) or 20  (boundary) : 0
    faces with interpolation weights (0..1)  < 0.02        : 0
    faces with volume ratio of neighbour cells < 0.01      : 0
    faces with face twist < 0.02                           : 0
    faces on cells with determinant < 0.001                : 0
displacementMedialAxis : Iteration 2
Moving mesh using displacement scaling : min:0.5625  max:1
Checking faces in error :
    non-orthogonality > 65  degrees                        : 0
    faces with face pyramid volume < 1e-13                 : 0
    faces with face-decomposition tet quality < 1e-15      : 5
    faces with concavity > 80  degrees                     : 0
    faces with skewness > 4   (internal) or 20  (boundary) : 0
    faces with interpolation weights (0..1)  < 0.02        : 0
    faces with volume ratio of neighbour cells < 0.01      : 0
    faces with face twist < 0.02                           : 0
    faces on cells with determinant < 0.001                : 0
displacementMedialAxis : Iteration 3
displacementMedialAxis : Displacement scaling for error reduction set to 0.
Moving mesh using displacement scaling : min:0.421875  max:1
Checking faces in error :
    non-orthogonality > 65  degrees                        : 0
    faces with face pyramid volume < 1e-13                 : 0
    faces with face-decomposition tet quality < 1e-15      : 4
    faces with concavity > 80  degrees                     : 0
    faces with skewness > 4   (internal) or 20  (boundary) : 0
    faces with interpolation weights (0..1)  < 0.02        : 0
    faces with volume ratio of neighbour cells < 0.01      : 0
    faces with face twist < 0.02                           : 0
    faces on cells with determinant < 0.001                : 0
displacementMedialAxis : Iteration 4
Moving mesh using displacement scaling : min:0  max:1
Checking faces in error :
    non-orthogonality > 65  degrees                        : 0
    faces with face pyramid volume < 1e-13                 : 0
    faces with face-decomposition tet quality < 1e-15      : 0
    faces with concavity > 80  degrees                     : 0
    faces with skewness > 4   (internal) or 20  (boundary) : 0
    faces with interpolation weights (0..1)  < 0.02        : 0
    faces with volume ratio of neighbour cells < 0.01      : 0
    faces with face twist < 0.02                           : 0
    faces on cells with determinant < 0.001                : 0
displacementMedialAxis : Successfully moved mesh
displacementMedialAxis : Finished moving mesh ...
truncateDisplacement : Unextruded 0 faces due to non-consecutive vertices being extruded.
truncateDisplacement : Unextruded 0 faces due to stringed edges with inconsistent extrusion.

Setting up information for layer truncation ...

Checking mesh with layer ...
Checking faces in error :
    non-orthogonality > 65  degrees                        : 1
    faces with face pyramid volume < 1e-13                 : 0
    faces with face-decomposition tet quality < 1e-15      : 0
    faces with concavity > 80  degrees                     : 0
    faces with skewness > 4   (internal) or 20  (boundary) : 0
    faces with interpolation weights (0..1)  < 0.02        : 0
    faces with volume ratio of neighbour cells < 0.01      : 0
    faces with face twist < 0.02                           : 1
    faces on cells with determinant < 0.001                : 0
Detected 2 illegal faces (concave, zero area or negative cell pyramid volume)
Extruding 142347 out of 183114 faces (77.7368%). Removed extrusion at 2 faces.
Added 142350 out of 183114 cells (77.7385%).


Layer addition iteration 23
--------------------------

Determining displacement for added points according to pointNormal ...
Detected 0 points with point normal pointing through faces.
Reset displacement at 0 points to average of surrounding points.

displacementMedialAxis : Smoothing using Medial Axis ...
displacementMedialAxis : Reducing layer thickness at 520 nodes where thickness to medial axis distance is large 
displacementMedialAxis : Removing isolated regions ...
displacementMedialAxis : Number of isolated points extrusion stopped : 1
displacementMedialAxis : Smoothing field ...
    Iteration 0   residual 4.65202e-05
displacementMedialAxis : Moving mesh ...
displacementMedialAxis : Iteration 0
Moving mesh using displacement scaling : min:1  max:1
Checking faces in error :
    non-orthogonality > 65  degrees                        : 0
    faces with face pyramid volume < 1e-13                 : 0
    faces with face-decomposition tet quality < 1e-15      : 22
    faces with concavity > 80  degrees                     : 0
    faces with skewness > 4   (internal) or 20  (boundary) : 0
    faces with interpolation weights (0..1)  < 0.02        : 0
    faces with volume ratio of neighbour cells < 0.01      : 0
    faces with face twist < 0.02                           : 1
    faces on cells with determinant < 0.001                : 0
displacementMedialAxis : Iteration 1
Moving mesh using displacement scaling : min:0.75  max:1
Checking faces in error :
    non-orthogonality > 65  degrees                        : 0
    faces with face pyramid volume < 1e-13                 : 0
    faces with face-decomposition tet quality < 1e-15      : 10
    faces with concavity > 80  degrees                     : 0
    faces with skewness > 4   (internal) or 20  (boundary) : 0
    faces with interpolation weights (0..1)  < 0.02        : 0
    faces with volume ratio of neighbour cells < 0.01      : 0
    faces with face twist < 0.02                           : 0
    faces on cells with determinant < 0.001                : 0
displacementMedialAxis : Iteration 2
Moving mesh using displacement scaling : min:0.5625  max:1
Checking faces in error :
    non-orthogonality > 65  degrees                        : 0
    faces with face pyramid volume < 1e-13                 : 0
    faces with face-decomposition tet quality < 1e-15      : 5
    faces with concavity > 80  degrees                     : 0
    faces with skewness > 4   (internal) or 20  (boundary) : 0
    faces with interpolation weights (0..1)  < 0.02        : 0
    faces with volume ratio of neighbour cells < 0.01      : 0
    faces with face twist < 0.02                           : 0
    faces on cells with determinant < 0.001                : 0
displacementMedialAxis : Iteration 3
displacementMedialAxis : Displacement scaling for error reduction set to 0.
Moving mesh using displacement scaling : min:0.421875  max:1
Checking faces in error :
    non-orthogonality > 65  degrees                        : 0
    faces with face pyramid volume < 1e-13                 : 0
    faces with face-decomposition tet quality < 1e-15      : 4
    faces with concavity > 80  degrees                     : 0
    faces with skewness > 4   (internal) or 20  (boundary) : 0
    faces with interpolation weights (0..1)  < 0.02        : 0
    faces with volume ratio of neighbour cells < 0.01      : 0
    faces with face twist < 0.02                           : 0
    faces on cells with determinant < 0.001                : 0
displacementMedialAxis : Iteration 4
Moving mesh using displacement scaling : min:0  max:1
Checking faces in error :
    non-orthogonality > 65  degrees                        : 0
    faces with face pyramid volume < 1e-13                 : 0
    faces with face-decomposition tet quality < 1e-15      : 0
    faces with concavity > 80  degrees                     : 0
    faces with skewness > 4   (internal) or 20  (boundary) : 0
    faces with interpolation weights (0..1)  < 0.02        : 0
    faces with volume ratio of neighbour cells < 0.01      : 0
    faces with face twist < 0.02                           : 0
    faces on cells with determinant < 0.001                : 0
displacementMedialAxis : Successfully moved mesh
displacementMedialAxis : Finished moving mesh ...
truncateDisplacement : Unextruded 0 faces due to non-consecutive vertices being extruded.
truncateDisplacement : Unextruded 0 faces due to stringed edges with inconsistent extrusion.

Setting up information for layer truncation ...

Checking mesh with layer ...
Checking faces in error :
    non-orthogonality > 65  degrees                        : 0
    faces with face pyramid volume < 1e-13                 : 0
    faces with face-decomposition tet quality < 1e-15      : 0
    faces with concavity > 80  degrees                     : 0
    faces with skewness > 4   (internal) or 20  (boundary) : 0
    faces with interpolation weights (0..1)  < 0.02        : 0
    faces with volume ratio of neighbour cells < 0.01      : 0
    faces with face twist < 0.02                           : 0
    faces on cells with determinant < 0.001                : 0
Detected 0 illegal faces (concave, zero area or negative cell pyramid volume)
Extruding 142346 out of 183114 faces (77.7363%). Removed extrusion at 0 faces.
Added 142346 out of 183114 cells (77.7363%).
Edge intersection testing:
    Number of edges             : 5915717
    Number of edges to retest   : 0
    Number of intersected edges : 291852

Doing final balancing
---------------------

Writing 142346 added cells to cellSet addedCells
Writing 0 faces inside added layer to faceSet layerFaces

Writing fields with layer information:
    nSurfaceLayers    : actual number of layers
    thickness         : overall layer thickness
    thicknessFraction : overall layer thickness (fraction of desired thickness)


patch                                            faces    layers   overall thickness
                                                                   [m]       [%]
-----                                            -----    ------   ---       ---
lowerWall                                        15835    0.994    0.0145    96.3    
motorBike_frt-fairing:001%1                      21763    0.712    0.00125   53.2    
motorBike_windshield:002%2                       181      0.89     0.00189   80.6    
motorBike_rr-wh-rim:005%5                        559      0.843    0.00102   43.8    
motorBike_rr-wh-rim:010%10                       1379     0.178    0.000282  12.1    
motorBike_fr-wh-rim:011%11                       1784     0.531    0.000571  24.4    
motorBike_fr-wh-brake-disk:012%12                256      0.996    0.00102   43.8    
motorBike_frame:016-shadow%13                    431      0.531    0.000391  16.9    
motorBike_rear-susp:014%14                       3647     0.787    0.00108   46.4    
motorBike_rear-susp:014-shadow%15                2139     0.766    0.00105   45      
motorBike_frame:016%16                           238      0.454    0.000373  16.1    
motorBike_rr-wh-rim:005-shadow%17                324      0.87     0.00106   45.2    
motorBike_rr-wh-chain-hub:022%22                 460      0.52     0.000442  18.8    
motorBike_rearseat%24                            1370     0.882    0.00175   68.5    
motorBike_frt-fairing%25                         2207     0.886    0.0015    63.5    
motorBike_windshield%26                          1483     0.564    0.000997  42.6    
motorBike_headlights%27                          591      0.98     0.00215   91.7    
motorBike_driversseat%28                         1610     0.77     0.00119   50.9    
motorBike_rear-body%29                           7420     0.878    0.0016    66      
motorBike_fuel-tank%30                           3236     0.916    0.0019    77.9    
motorBike_exhaust%31                             8494     0.702    0.0013    52.3    
motorBike_rr-wh-rim%32                           4374     0.877    0.00147   58.6    
motorBike_fr-mud-guard%33                        3119     0.601    0.00082   35.1    
motorBike_fr-wh-rim%34                           2207     0.899    0.00152   65      
motorBike_fr-wh-brake-disk%35                    1749     0.766    0.000777  33.3    
motorBike_fr-brake-caliper%36                    580      0.305    0.00023   9.89    
motorBike_fr-wh-tyre%37                          5018     0.734    0.00135   57.6    
motorBike_hbars%38                               2016     0.222    0.000213  9.14    
motorBike_fr-forks%39                            4355     0.723    0.00133   56.7    
motorBike_chain%40                               1789     0.13     9.02e-05  3.85    
motorBike_rr-wh-tyre%41                          4570     0.799    0.00173   59.3    
motorBike_square-dial%42                         20       1        0.00191   81.4    
motorBike_round-dial%43                          45       0.978    0.00102   43.4    
motorBike_dial-holder%44                         344      0.744    0.000724  31.3    
motorBike_rear-susp%45                           7103     0.784    0.000948  40.5    
motorBike_rear-brake-lights%46                   202      0.48     0.000409  17.8    
motorBike_rear-light-bracket%47                  635      0.833    0.00117   49.8    
motorBike_frame%48                               7650     0.796    0.00134   57      
motorBike_rear-mud-guard%49                      2553     0.745    0.00121   51.7    
motorBike_rear-susp-spring-damp%50               430      0.567    0.000608  26      
motorBike_fairing-inner-plate%51                 1562     0.803    0.00127   50.9    
motorBike_clutch-housing%52                      3816     0.965    0.00176   74.4    
motorBike_radiator%53                            445      0.139    6.54e-05  2.83    
motorBike_water-pipe%54                          326      0        0         0       
motorBike_water-pump%55                          263      0.38     0.000323  13.9    
motorBike_engine%56                              8716     0.902    0.00154   64.5    
motorBike_rear-shock-link%57                     106      0        0         0       
motorBike_rear-brake-fluid-pot-bracket%58        176      0.54     0.000563  24.1    
motorBike_rear-brake-fluid-pot%59                206      0.553    0.000332  14.2    
motorBike_footpeg%60                             349      0.338    0.000168  7.2     
motorBike_rr-wh-chain-hub%61                     459      0.734    0.000688  29.3    
motorBike_rear-brake-caliper%62                  575      0.374    0.000292  12.5    
motorBike_rider-helmet%65                        1800     0.953    0.00231   79      
motorBike_rider-visor%66                         548      1        0.00231   97.1    
motorBike_rider-boots%67                         3757     0.966    0.00199   84.9    
motorBike_rider-gloves%68                        1213     0.458    0.000759  32.4    
motorBike_rider-body%69                          14289    0.934    0.0022    81      
motorBike_frame:0%70                             141      0.667    0.00104   44.3    
motorBike_frt-fairing:001-shadow%74              13644    0.691    0.00123   52.6    
motorBike_windshield-shadow%75                   1013     0.516    0.000967  41.3    
motorBike_fr-mud-guard-shadow%81                 2049     0.603    0.000843  36.1    
motorBike_fr-wh-brake-disk-shadow%83             922      0.769    0.000738  31.6    
motorBike_rear-mud-guard-shadow%84               1642     0.738    0.00125   53.4    
motorBike_rear-susp-spring-damp-shadow%85        295      0.631    0.000703  30      
motorBike_radiator-shadow%86                     219      0.16     8.23e-05  3.51    
motorBike_rear-shock-link-shadow%87              59       0        0         0       
motorBike_rear-brake-fluid-pot-bracket-shadow%88 79       0.544    0.000497  21.2    
motorBike_rr-wh-chain-hub-shadow%89              279      0.71     0.000656  28      

Layer mesh : cells:1905662  faces:5915717  points:2126884
Cells per refinement level:
    0	9551
    1	4892
    2	16074
    3	48288
    4	991411
    5	127517
    6	707929
Writing mesh to time constant
Wrote mesh in = 41.63 s.
Layers added in = 41.63 s.
Checking final mesh ...
Checking faces in error :
    non-orthogonality > 65  degrees                        : 0
    faces with face pyramid volume < 1e-13                 : 0
    faces with face-decomposition tet quality < 1e-15      : 0
    faces with concavity > 80  degrees                     : 0
    faces with skewness > 4   (internal) or 20  (boundary) : 0
    faces with interpolation weights (0..1)  < 0.02        : 0
    faces with volume ratio of neighbour cells < 0.01      : 0
    faces with face twist < 0.02                           : 0
    faces on cells with determinant < 0.001                : 0
Finished meshing without any errors
Finished meshing in = 178.45 s.
End

Finalising parallel run
