Cleaning /rds/user/hpcbras1/hpc-work/csd3/cclake-ib-gcc9-ompi3-ucx/openfoam/Openfoam_Mbike_csd3_cclake_ib_gcc9_ompi3_ucx_3136_56 case
Running surfaceFeatureExtract on /rds/user/hpcbras1/hpc-work/csd3/cclake-ib-gcc9-ompi3-ucx/openfoam/Openfoam_Mbike_csd3_cclake_ib_gcc9_ompi3_ucx_3136_56
Running blockMesh on /rds/user/hpcbras1/hpc-work/csd3/cclake-ib-gcc9-ompi3-ucx/openfoam/Openfoam_Mbike_csd3_cclake_ib_gcc9_ompi3_ucx_3136_56
Running decomposePar on /rds/user/hpcbras1/hpc-work/csd3/cclake-ib-gcc9-ompi3-ucx/openfoam/Openfoam_Mbike_csd3_cclake_ib_gcc9_ompi3_ucx_3136_56
Running snappyHexMesh in parallel on /rds/user/hpcbras1/hpc-work/csd3/cclake-ib-gcc9-ompi3-ucx/openfoam/Openfoam_Mbike_csd3_cclake_ib_gcc9_ompi3_ucx_3136_56 using 3136 processes
/*---------------------------------------------------------------------------*\
  =========                 |
  \\      /  F ield         | OpenFOAM: The Open Source CFD Toolbox
   \\    /   O peration     | Website:  https://openfoam.org
    \\  /    A nd           | Version:  7
     \\/     M anipulation  |
\*---------------------------------------------------------------------------*/
Build  : 7
Exec   : /home/hpcbras1/spack/opt/spack/linux-scientific7-skylake_avx512/gcc-9.1.0/openfoam-org-7-dahapwszurcwmfsxldhpukzh3tv4odmy/platforms/linux64GccDPInt32-spack/bin/simpleFoam -parallel
Date   : Oct 14 2020
Time   : 17:37:21
Host   : "cpu-p-281"
PID    : 90098
I/O    : uncollated
Case   : /rds/user/hpcbras1/hpc-work/csd3/cclake-ib-gcc9-ompi3-ucx/openfoam/Openfoam_Mbike_csd3_cclake_ib_gcc9_ompi3_ucx_3136_56
nProcs : 3136
Slaves : 
3135
(
"cpu-p-281.90099"
"cpu-p-281.90100"
"cpu-p-281.90101"
"cpu-p-281.90102"
"cpu-p-281.90103"
"cpu-p-281.90104"
"cpu-p-281.90105"
"cpu-p-281.90106"
"cpu-p-281.90107"
"cpu-p-281.90108"
"cpu-p-281.90109"
"cpu-p-281.90110"
"cpu-p-281.90111"
"cpu-p-281.90112"
"cpu-p-281.90113"
"cpu-p-281.90114"
"cpu-p-281.90115"
"cpu-p-281.90116"
"cpu-p-281.90117"
"cpu-p-281.90118"
"cpu-p-281.90119"
"cpu-p-281.90120"
"cpu-p-281.90121"
"cpu-p-281.90122"
"cpu-p-281.90123"
"cpu-p-281.90124"
"cpu-p-281.90125"
"cpu-p-281.90126"
"cpu-p-281.90127"
"cpu-p-281.90128"
"cpu-p-281.90129"
"cpu-p-281.90130"
"cpu-p-281.90131"
"cpu-p-281.90132"
"cpu-p-281.90133"
"cpu-p-281.90134"
"cpu-p-281.90135"
"cpu-p-281.90136"
"cpu-p-281.90137"
"cpu-p-281.90138"
"cpu-p-281.90139"
"cpu-p-281.90140"
"cpu-p-281.90141"
"cpu-p-281.90142"
"cpu-p-281.90143"
"cpu-p-281.90144"
"cpu-p-281.90145"
"cpu-p-281.90146"
"cpu-p-281.90147"
"cpu-p-281.90148"
"cpu-p-281.90149"
"cpu-p-281.90150"
"cpu-p-281.90151"
"cpu-p-281.90152"
"cpu-p-281.90153"
"cpu-p-282.286339"
"cpu-p-282.286340"
"cpu-p-282.286341"
"cpu-p-282.286342"
"cpu-p-282.286343"
"cpu-p-282.286344"
"cpu-p-282.286345"
"cpu-p-282.286346"
"cpu-p-282.286347"
"cpu-p-282.286348"
"cpu-p-282.286349"
"cpu-p-282.286350"
"cpu-p-282.286351"
"cpu-p-282.286352"
"cpu-p-282.286353"
"cpu-p-282.286354"
"cpu-p-282.286355"
"cpu-p-282.286356"
"cpu-p-282.286357"
"cpu-p-282.286358"
"cpu-p-282.286359"
"cpu-p-282.286360"
"cpu-p-282.286361"
"cpu-p-282.286362"
"cpu-p-282.286363"
"cpu-p-282.286364"
"cpu-p-282.286365"
"cpu-p-282.286366"
"cpu-p-282.286367"
"cpu-p-282.286368"
"cpu-p-282.286369"
"cpu-p-282.286370"
"cpu-p-282.286371"
"cpu-p-282.286372"
"cpu-p-282.286373"
"cpu-p-282.286374"
"cpu-p-282.286375"
"cpu-p-282.286376"
"cpu-p-282.286377"
"cpu-p-282.286378"
"cpu-p-282.286379"
"cpu-p-282.286380"
"cpu-p-282.286381"
"cpu-p-282.286382"
"cpu-p-282.286383"
"cpu-p-282.286384"
"cpu-p-282.286385"
"cpu-p-282.286386"
"cpu-p-282.286387"
"cpu-p-282.286388"
"cpu-p-282.286389"
"cpu-p-282.286390"
"cpu-p-282.286391"
"cpu-p-282.286392"
"cpu-p-282.286393"
"cpu-p-282.286394"
"cpu-p-283.265640"
"cpu-p-283.265641"
"cpu-p-283.265642"
"cpu-p-283.265643"
"cpu-p-283.265644"
"cpu-p-283.265645"
"cpu-p-283.265646"
"cpu-p-283.265647"
"cpu-p-283.265648"
"cpu-p-283.265649"
"cpu-p-283.265650"
"cpu-p-283.265651"
"cpu-p-283.265652"
"cpu-p-283.265653"
"cpu-p-283.265654"
"cpu-p-283.265655"
"cpu-p-283.265656"
"cpu-p-283.265657"
"cpu-p-283.265658"
"cpu-p-283.265659"
"cpu-p-283.265660"
"cpu-p-283.265661"
"cpu-p-283.265662"
"cpu-p-283.265663"
"cpu-p-283.265664"
"cpu-p-283.265665"
"cpu-p-283.265666"
"cpu-p-283.265667"
"cpu-p-283.265668"
"cpu-p-283.265669"
"cpu-p-283.265670"
"cpu-p-283.265671"
"cpu-p-283.265672"
"cpu-p-283.265673"
"cpu-p-283.265674"
"cpu-p-283.265675"
"cpu-p-283.265676"
"cpu-p-283.265677"
"cpu-p-283.265678"
"cpu-p-283.265679"
"cpu-p-283.265680"
"cpu-p-283.265681"
"cpu-p-283.265682"
"cpu-p-283.265683"
"cpu-p-283.265684"
"cpu-p-283.265685"
"cpu-p-283.265686"
"cpu-p-283.265687"
"cpu-p-283.265688"
"cpu-p-283.265689"
"cpu-p-283.265690"
"cpu-p-283.265691"
"cpu-p-283.265692"
"cpu-p-283.265693"
"cpu-p-283.265694"
"cpu-p-283.265695"
"cpu-p-284.201348"
"cpu-p-284.201349"
"cpu-p-284.201350"
"cpu-p-284.201351"
"cpu-p-284.201352"
"cpu-p-284.201353"
"cpu-p-284.201354"
"cpu-p-284.201355"
"cpu-p-284.201356"
"cpu-p-284.201357"
"cpu-p-284.201358"
"cpu-p-284.201359"
"cpu-p-284.201360"
"cpu-p-284.201361"
"cpu-p-284.201362"
"cpu-p-284.201363"
"cpu-p-284.201364"
"cpu-p-284.201365"
"cpu-p-284.201366"
"cpu-p-284.201367"
"cpu-p-284.201368"
"cpu-p-284.201369"
"cpu-p-284.201370"
"cpu-p-284.201371"
"cpu-p-284.201372"
"cpu-p-284.201373"
"cpu-p-284.201374"
"cpu-p-284.201375"
"cpu-p-284.201376"
"cpu-p-284.201377"
"cpu-p-284.201378"
"cpu-p-284.201379"
"cpu-p-284.201380"
"cpu-p-284.201381"
"cpu-p-284.201382"
"cpu-p-284.201383"
"cpu-p-284.201384"
"cpu-p-284.201385"
"cpu-p-284.201386"
"cpu-p-284.201387"
"cpu-p-284.201388"
"cpu-p-284.201389"
"cpu-p-284.201390"
"cpu-p-284.201391"
"cpu-p-284.201392"
"cpu-p-284.201393"
"cpu-p-284.201394"
"cpu-p-284.201395"
"cpu-p-284.201396"
"cpu-p-284.201397"
"cpu-p-284.201398"
"cpu-p-284.201399"
"cpu-p-284.201400"
"cpu-p-284.201401"
"cpu-p-284.201402"
"cpu-p-284.201403"
"cpu-p-285.217470"
"cpu-p-285.217471"
"cpu-p-285.217472"
"cpu-p-285.217473"
"cpu-p-285.217474"
"cpu-p-285.217475"
"cpu-p-285.217476"
"cpu-p-285.217477"
"cpu-p-285.217478"
"cpu-p-285.217479"
"cpu-p-285.217480"
"cpu-p-285.217481"
"cpu-p-285.217482"
"cpu-p-285.217483"
"cpu-p-285.217484"
"cpu-p-285.217485"
"cpu-p-285.217486"
"cpu-p-285.217487"
"cpu-p-285.217488"
"cpu-p-285.217489"
"cpu-p-285.217490"
"cpu-p-285.217491"
"cpu-p-285.217492"
"cpu-p-285.217493"
"cpu-p-285.217494"
"cpu-p-285.217495"
"cpu-p-285.217496"
"cpu-p-285.217497"
"cpu-p-285.217498"
"cpu-p-285.217499"
"cpu-p-285.217500"
"cpu-p-285.217501"
"cpu-p-285.217502"
"cpu-p-285.217503"
"cpu-p-285.217504"
"cpu-p-285.217505"
"cpu-p-285.217506"
"cpu-p-285.217507"
"cpu-p-285.217508"
"cpu-p-285.217509"
"cpu-p-285.217510"
"cpu-p-285.217511"
"cpu-p-285.217512"
"cpu-p-285.217513"
"cpu-p-285.217514"
"cpu-p-285.217515"
"cpu-p-285.217516"
"cpu-p-285.217517"
"cpu-p-285.217518"
"cpu-p-285.217519"
"cpu-p-285.217520"
"cpu-p-285.217521"
"cpu-p-285.217522"
"cpu-p-285.217523"
"cpu-p-285.217524"
"cpu-p-285.217525"
"cpu-p-286.44433"
"cpu-p-286.44434"
"cpu-p-286.44435"
"cpu-p-286.44436"
"cpu-p-286.44437"
"cpu-p-286.44438"
"cpu-p-286.44439"
"cpu-p-286.44440"
"cpu-p-286.44441"
"cpu-p-286.44442"
"cpu-p-286.44443"
"cpu-p-286.44444"
"cpu-p-286.44445"
"cpu-p-286.44446"
"cpu-p-286.44447"
"cpu-p-286.44448"
"cpu-p-286.44449"
"cpu-p-286.44450"
"cpu-p-286.44451"
"cpu-p-286.44452"
"cpu-p-286.44453"
"cpu-p-286.44454"
"cpu-p-286.44455"
"cpu-p-286.44456"
"cpu-p-286.44457"
"cpu-p-286.44458"
"cpu-p-286.44459"
"cpu-p-286.44460"
"cpu-p-286.44461"
"cpu-p-286.44462"
"cpu-p-286.44463"
"cpu-p-286.44464"
"cpu-p-286.44465"
"cpu-p-286.44466"
"cpu-p-286.44467"
"cpu-p-286.44468"
"cpu-p-286.44469"
"cpu-p-286.44470"
"cpu-p-286.44471"
"cpu-p-286.44472"
"cpu-p-286.44473"
"cpu-p-286.44474"
"cpu-p-286.44475"
"cpu-p-286.44476"
"cpu-p-286.44477"
"cpu-p-286.44478"
"cpu-p-286.44479"
"cpu-p-286.44480"
"cpu-p-286.44481"
"cpu-p-286.44482"
"cpu-p-286.44483"
"cpu-p-286.44484"
"cpu-p-286.44485"
"cpu-p-286.44486"
"cpu-p-286.44487"
"cpu-p-286.44488"
"cpu-p-287.253509"
"cpu-p-287.253510"
"cpu-p-287.253511"
"cpu-p-287.253512"
"cpu-p-287.253513"
"cpu-p-287.253514"
"cpu-p-287.253515"
"cpu-p-287.253516"
"cpu-p-287.253517"
"cpu-p-287.253518"
"cpu-p-287.253519"
"cpu-p-287.253520"
"cpu-p-287.253521"
"cpu-p-287.253522"
"cpu-p-287.253523"
"cpu-p-287.253524"
"cpu-p-287.253525"
"cpu-p-287.253526"
"cpu-p-287.253527"
"cpu-p-287.253528"
"cpu-p-287.253529"
"cpu-p-287.253530"
"cpu-p-287.253531"
"cpu-p-287.253532"
"cpu-p-287.253533"
"cpu-p-287.253534"
"cpu-p-287.253535"
"cpu-p-287.253536"
"cpu-p-287.253537"
"cpu-p-287.253538"
"cpu-p-287.253539"
"cpu-p-287.253540"
"cpu-p-287.253541"
"cpu-p-287.253542"
"cpu-p-287.253543"
"cpu-p-287.253544"
"cpu-p-287.253545"
"cpu-p-287.253546"
"cpu-p-287.253547"
"cpu-p-287.253548"
"cpu-p-287.253549"
"cpu-p-287.253550"
"cpu-p-287.253551"
"cpu-p-287.253552"
"cpu-p-287.253553"
"cpu-p-287.253554"
"cpu-p-287.253555"
"cpu-p-287.253556"
"cpu-p-287.253557"
"cpu-p-287.253558"
"cpu-p-287.253559"
"cpu-p-287.253560"
"cpu-p-287.253561"
"cpu-p-287.253562"
"cpu-p-287.253563"
"cpu-p-287.253564"
"cpu-p-288.128525"
"cpu-p-288.128526"
"cpu-p-288.128527"
"cpu-p-288.128528"
"cpu-p-288.128529"
"cpu-p-288.128530"
"cpu-p-288.128531"
"cpu-p-288.128532"
"cpu-p-288.128533"
"cpu-p-288.128534"
"cpu-p-288.128535"
"cpu-p-288.128536"
"cpu-p-288.128537"
"cpu-p-288.128538"
"cpu-p-288.128539"
"cpu-p-288.128540"
"cpu-p-288.128541"
"cpu-p-288.128542"
"cpu-p-288.128543"
"cpu-p-288.128544"
"cpu-p-288.128545"
"cpu-p-288.128546"
"cpu-p-288.128547"
"cpu-p-288.128548"
"cpu-p-288.128549"
"cpu-p-288.128550"
"cpu-p-288.128551"
"cpu-p-288.128552"
"cpu-p-288.128553"
"cpu-p-288.128554"
"cpu-p-288.128555"
"cpu-p-288.128556"
"cpu-p-288.128557"
"cpu-p-288.128558"
"cpu-p-288.128559"
"cpu-p-288.128560"
"cpu-p-288.128561"
"cpu-p-288.128562"
"cpu-p-288.128563"
"cpu-p-288.128564"
"cpu-p-288.128565"
"cpu-p-288.128566"
"cpu-p-288.128567"
"cpu-p-288.128568"
"cpu-p-288.128569"
"cpu-p-288.128570"
"cpu-p-288.128571"
"cpu-p-288.128572"
"cpu-p-288.128573"
"cpu-p-288.128574"
"cpu-p-288.128575"
"cpu-p-288.128576"
"cpu-p-288.128577"
"cpu-p-288.128578"
"cpu-p-288.128579"
"cpu-p-288.128580"
"cpu-p-289.123800"
"cpu-p-289.123801"
"cpu-p-289.123802"
"cpu-p-289.123803"
"cpu-p-289.123804"
"cpu-p-289.123805"
"cpu-p-289.123806"
"cpu-p-289.123807"
"cpu-p-289.123808"
"cpu-p-289.123809"
"cpu-p-289.123810"
"cpu-p-289.123811"
"cpu-p-289.123812"
"cpu-p-289.123813"
"cpu-p-289.123814"
"cpu-p-289.123815"
"cpu-p-289.123816"
"cpu-p-289.123817"
"cpu-p-289.123818"
"cpu-p-289.123819"
"cpu-p-289.123820"
"cpu-p-289.123821"
"cpu-p-289.123822"
"cpu-p-289.123823"
"cpu-p-289.123824"
"cpu-p-289.123825"
"cpu-p-289.123826"
"cpu-p-289.123827"
"cpu-p-289.123828"
"cpu-p-289.123829"
"cpu-p-289.123830"
"cpu-p-289.123831"
"cpu-p-289.123832"
"cpu-p-289.123833"
"cpu-p-289.123834"
"cpu-p-289.123835"
"cpu-p-289.123836"
"cpu-p-289.123837"
"cpu-p-289.123838"
"cpu-p-289.123839"
"cpu-p-289.123840"
"cpu-p-289.123841"
"cpu-p-289.123842"
"cpu-p-289.123843"
"cpu-p-289.123844"
"cpu-p-289.123845"
"cpu-p-289.123846"
"cpu-p-289.123847"
"cpu-p-289.123848"
"cpu-p-289.123849"
"cpu-p-289.123850"
"cpu-p-289.123851"
"cpu-p-289.123852"
"cpu-p-289.123853"
"cpu-p-289.123854"
"cpu-p-289.123855"
"cpu-p-290.52089"
"cpu-p-290.52090"
"cpu-p-290.52091"
"cpu-p-290.52092"
"cpu-p-290.52093"
"cpu-p-290.52094"
"cpu-p-290.52095"
"cpu-p-290.52096"
"cpu-p-290.52097"
"cpu-p-290.52098"
"cpu-p-290.52099"
"cpu-p-290.52100"
"cpu-p-290.52101"
"cpu-p-290.52102"
"cpu-p-290.52103"
"cpu-p-290.52104"
"cpu-p-290.52105"
"cpu-p-290.52106"
"cpu-p-290.52107"
"cpu-p-290.52108"
"cpu-p-290.52109"
"cpu-p-290.52110"
"cpu-p-290.52111"
"cpu-p-290.52112"
"cpu-p-290.52113"
"cpu-p-290.52114"
"cpu-p-290.52115"
"cpu-p-290.52116"
"cpu-p-290.52117"
"cpu-p-290.52118"
"cpu-p-290.52119"
"cpu-p-290.52120"
"cpu-p-290.52121"
"cpu-p-290.52122"
"cpu-p-290.52123"
"cpu-p-290.52124"
"cpu-p-290.52125"
"cpu-p-290.52126"
"cpu-p-290.52127"
"cpu-p-290.52128"
"cpu-p-290.52129"
"cpu-p-290.52130"
"cpu-p-290.52131"
"cpu-p-290.52132"
"cpu-p-290.52133"
"cpu-p-290.52134"
"cpu-p-290.52135"
"cpu-p-290.52136"
"cpu-p-290.52137"
"cpu-p-290.52138"
"cpu-p-290.52139"
"cpu-p-290.52140"
"cpu-p-290.52141"
"cpu-p-290.52142"
"cpu-p-290.52143"
"cpu-p-290.52144"
"cpu-p-291.248155"
"cpu-p-291.248156"
"cpu-p-291.248157"
"cpu-p-291.248158"
"cpu-p-291.248159"
"cpu-p-291.248160"
"cpu-p-291.248161"
"cpu-p-291.248162"
"cpu-p-291.248163"
"cpu-p-291.248164"
"cpu-p-291.248165"
"cpu-p-291.248166"
"cpu-p-291.248167"
"cpu-p-291.248168"
"cpu-p-291.248169"
"cpu-p-291.248170"
"cpu-p-291.248171"
"cpu-p-291.248172"
"cpu-p-291.248173"
"cpu-p-291.248174"
"cpu-p-291.248175"
"cpu-p-291.248176"
"cpu-p-291.248177"
"cpu-p-291.248178"
"cpu-p-291.248179"
"cpu-p-291.248180"
"cpu-p-291.248181"
"cpu-p-291.248182"
"cpu-p-291.248183"
"cpu-p-291.248184"
"cpu-p-291.248185"
"cpu-p-291.248186"
"cpu-p-291.248187"
"cpu-p-291.248188"
"cpu-p-291.248189"
"cpu-p-291.248190"
"cpu-p-291.248191"
"cpu-p-291.248192"
"cpu-p-291.248193"
"cpu-p-291.248194"
"cpu-p-291.248195"
"cpu-p-291.248196"
"cpu-p-291.248197"
"cpu-p-291.248198"
"cpu-p-291.248199"
"cpu-p-291.248200"
"cpu-p-291.248201"
"cpu-p-291.248202"
"cpu-p-291.248203"
"cpu-p-291.248204"
"cpu-p-291.248205"
"cpu-p-291.248206"
"cpu-p-291.248207"
"cpu-p-291.248208"
"cpu-p-291.248209"
"cpu-p-291.248210"
"cpu-p-292.51949"
"cpu-p-292.51950"
"cpu-p-292.51951"
"cpu-p-292.51952"
"cpu-p-292.51953"
"cpu-p-292.51954"
"cpu-p-292.51955"
"cpu-p-292.51956"
"cpu-p-292.51957"
"cpu-p-292.51958"
"cpu-p-292.51959"
"cpu-p-292.51960"
"cpu-p-292.51961"
"cpu-p-292.51962"
"cpu-p-292.51963"
"cpu-p-292.51964"
"cpu-p-292.51965"
"cpu-p-292.51966"
"cpu-p-292.51967"
"cpu-p-292.51968"
"cpu-p-292.51969"
"cpu-p-292.51970"
"cpu-p-292.51971"
"cpu-p-292.51972"
"cpu-p-292.51973"
"cpu-p-292.51974"
"cpu-p-292.51975"
"cpu-p-292.51976"
"cpu-p-292.51977"
"cpu-p-292.51978"
"cpu-p-292.51979"
"cpu-p-292.51980"
"cpu-p-292.51981"
"cpu-p-292.51982"
"cpu-p-292.51983"
"cpu-p-292.51984"
"cpu-p-292.51985"
"cpu-p-292.51986"
"cpu-p-292.51987"
"cpu-p-292.51988"
"cpu-p-292.51989"
"cpu-p-292.51990"
"cpu-p-292.51991"
"cpu-p-292.51992"
"cpu-p-292.51993"
"cpu-p-292.51994"
"cpu-p-292.51995"
"cpu-p-292.51996"
"cpu-p-292.51997"
"cpu-p-292.51998"
"cpu-p-292.51999"
"cpu-p-292.52000"
"cpu-p-292.52001"
"cpu-p-292.52002"
"cpu-p-292.52003"
"cpu-p-292.52004"
"cpu-p-293.42726"
"cpu-p-293.42727"
"cpu-p-293.42728"
"cpu-p-293.42729"
"cpu-p-293.42730"
"cpu-p-293.42731"
"cpu-p-293.42732"
"cpu-p-293.42733"
"cpu-p-293.42734"
"cpu-p-293.42735"
"cpu-p-293.42736"
"cpu-p-293.42737"
"cpu-p-293.42738"
"cpu-p-293.42739"
"cpu-p-293.42740"
"cpu-p-293.42741"
"cpu-p-293.42742"
"cpu-p-293.42743"
"cpu-p-293.42744"
"cpu-p-293.42745"
"cpu-p-293.42746"
"cpu-p-293.42747"
"cpu-p-293.42748"
"cpu-p-293.42749"
"cpu-p-293.42750"
"cpu-p-293.42751"
"cpu-p-293.42752"
"cpu-p-293.42753"
"cpu-p-293.42754"
"cpu-p-293.42755"
"cpu-p-293.42756"
"cpu-p-293.42757"
"cpu-p-293.42758"
"cpu-p-293.42759"
"cpu-p-293.42760"
"cpu-p-293.42761"
"cpu-p-293.42762"
"cpu-p-293.42763"
"cpu-p-293.42764"
"cpu-p-293.42765"
"cpu-p-293.42766"
"cpu-p-293.42767"
"cpu-p-293.42768"
"cpu-p-293.42769"
"cpu-p-293.42770"
"cpu-p-293.42771"
"cpu-p-293.42772"
"cpu-p-293.42773"
"cpu-p-293.42774"
"cpu-p-293.42775"
"cpu-p-293.42776"
"cpu-p-293.42777"
"cpu-p-293.42778"
"cpu-p-293.42779"
"cpu-p-293.42780"
"cpu-p-293.42781"
"cpu-p-294.42716"
"cpu-p-294.42717"
"cpu-p-294.42718"
"cpu-p-294.42719"
"cpu-p-294.42720"
"cpu-p-294.42721"
"cpu-p-294.42722"
"cpu-p-294.42723"
"cpu-p-294.42724"
"cpu-p-294.42725"
"cpu-p-294.42726"
"cpu-p-294.42727"
"cpu-p-294.42728"
"cpu-p-294.42729"
"cpu-p-294.42730"
"cpu-p-294.42731"
"cpu-p-294.42732"
"cpu-p-294.42733"
"cpu-p-294.42734"
"cpu-p-294.42735"
"cpu-p-294.42736"
"cpu-p-294.42737"
"cpu-p-294.42738"
"cpu-p-294.42739"
"cpu-p-294.42740"
"cpu-p-294.42741"
"cpu-p-294.42742"
"cpu-p-294.42743"
"cpu-p-294.42744"
"cpu-p-294.42745"
"cpu-p-294.42746"
"cpu-p-294.42747"
"cpu-p-294.42748"
"cpu-p-294.42749"
"cpu-p-294.42750"
"cpu-p-294.42751"
"cpu-p-294.42752"
"cpu-p-294.42753"
"cpu-p-294.42754"
"cpu-p-294.42755"
"cpu-p-294.42756"
"cpu-p-294.42757"
"cpu-p-294.42758"
"cpu-p-294.42759"
"cpu-p-294.42760"
"cpu-p-294.42761"
"cpu-p-294.42762"
"cpu-p-294.42763"
"cpu-p-294.42764"
"cpu-p-294.42765"
"cpu-p-294.42766"
"cpu-p-294.42767"
"cpu-p-294.42768"
"cpu-p-294.42769"
"cpu-p-294.42770"
"cpu-p-294.42771"
"cpu-p-295.181505"
"cpu-p-295.181506"
"cpu-p-295.181507"
"cpu-p-295.181508"
"cpu-p-295.181509"
"cpu-p-295.181510"
"cpu-p-295.181511"
"cpu-p-295.181512"
"cpu-p-295.181513"
"cpu-p-295.181514"
"cpu-p-295.181515"
"cpu-p-295.181516"
"cpu-p-295.181517"
"cpu-p-295.181518"
"cpu-p-295.181519"
"cpu-p-295.181520"
"cpu-p-295.181521"
"cpu-p-295.181522"
"cpu-p-295.181523"
"cpu-p-295.181524"
"cpu-p-295.181525"
"cpu-p-295.181526"
"cpu-p-295.181527"
"cpu-p-295.181528"
"cpu-p-295.181529"
"cpu-p-295.181530"
"cpu-p-295.181531"
"cpu-p-295.181532"
"cpu-p-295.181533"
"cpu-p-295.181534"
"cpu-p-295.181535"
"cpu-p-295.181536"
"cpu-p-295.181537"
"cpu-p-295.181538"
"cpu-p-295.181539"
"cpu-p-295.181540"
"cpu-p-295.181541"
"cpu-p-295.181542"
"cpu-p-295.181543"
"cpu-p-295.181544"
"cpu-p-295.181545"
"cpu-p-295.181546"
"cpu-p-295.181547"
"cpu-p-295.181548"
"cpu-p-295.181549"
"cpu-p-295.181550"
"cpu-p-295.181551"
"cpu-p-295.181552"
"cpu-p-295.181553"
"cpu-p-295.181554"
"cpu-p-295.181555"
"cpu-p-295.181556"
"cpu-p-295.181557"
"cpu-p-295.181558"
"cpu-p-295.181559"
"cpu-p-295.181560"
"cpu-p-296.65153"
"cpu-p-296.65154"
"cpu-p-296.65155"
"cpu-p-296.65156"
"cpu-p-296.65157"
"cpu-p-296.65158"
"cpu-p-296.65159"
"cpu-p-296.65160"
"cpu-p-296.65161"
"cpu-p-296.65162"
"cpu-p-296.65163"
"cpu-p-296.65164"
"cpu-p-296.65165"
"cpu-p-296.65166"
"cpu-p-296.65167"
"cpu-p-296.65168"
"cpu-p-296.65169"
"cpu-p-296.65170"
"cpu-p-296.65171"
"cpu-p-296.65172"
"cpu-p-296.65173"
"cpu-p-296.65174"
"cpu-p-296.65175"
"cpu-p-296.65176"
"cpu-p-296.65177"
"cpu-p-296.65178"
"cpu-p-296.65179"
"cpu-p-296.65180"
"cpu-p-296.65181"
"cpu-p-296.65182"
"cpu-p-296.65183"
"cpu-p-296.65184"
"cpu-p-296.65185"
"cpu-p-296.65186"
"cpu-p-296.65187"
"cpu-p-296.65188"
"cpu-p-296.65189"
"cpu-p-296.65190"
"cpu-p-296.65191"
"cpu-p-296.65192"
"cpu-p-296.65193"
"cpu-p-296.65194"
"cpu-p-296.65195"
"cpu-p-296.65196"
"cpu-p-296.65197"
"cpu-p-296.65198"
"cpu-p-296.65199"
"cpu-p-296.65200"
"cpu-p-296.65201"
"cpu-p-296.65202"
"cpu-p-296.65203"
"cpu-p-296.65204"
"cpu-p-296.65205"
"cpu-p-296.65206"
"cpu-p-296.65207"
"cpu-p-296.65208"
"cpu-p-297.167328"
"cpu-p-297.167329"
"cpu-p-297.167330"
"cpu-p-297.167331"
"cpu-p-297.167332"
"cpu-p-297.167333"
"cpu-p-297.167334"
"cpu-p-297.167335"
"cpu-p-297.167336"
"cpu-p-297.167337"
"cpu-p-297.167338"
"cpu-p-297.167339"
"cpu-p-297.167340"
"cpu-p-297.167341"
"cpu-p-297.167342"
"cpu-p-297.167343"
"cpu-p-297.167344"
"cpu-p-297.167345"
"cpu-p-297.167346"
"cpu-p-297.167347"
"cpu-p-297.167348"
"cpu-p-297.167349"
"cpu-p-297.167350"
"cpu-p-297.167351"
"cpu-p-297.167352"
"cpu-p-297.167353"
"cpu-p-297.167354"
"cpu-p-297.167355"
"cpu-p-297.167356"
"cpu-p-297.167357"
"cpu-p-297.167358"
"cpu-p-297.167359"
"cpu-p-297.167360"
"cpu-p-297.167361"
"cpu-p-297.167362"
"cpu-p-297.167363"
"cpu-p-297.167364"
"cpu-p-297.167365"
"cpu-p-297.167366"
"cpu-p-297.167367"
"cpu-p-297.167368"
"cpu-p-297.167369"
"cpu-p-297.167370"
"cpu-p-297.167371"
"cpu-p-297.167372"
"cpu-p-297.167373"
"cpu-p-297.167374"
"cpu-p-297.167375"
"cpu-p-297.167376"
"cpu-p-297.167377"
"cpu-p-297.167378"
"cpu-p-297.167379"
"cpu-p-297.167380"
"cpu-p-297.167381"
"cpu-p-297.167382"
"cpu-p-297.167383"
"cpu-p-298.153762"
"cpu-p-298.153763"
"cpu-p-298.153764"
"cpu-p-298.153765"
"cpu-p-298.153766"
"cpu-p-298.153767"
"cpu-p-298.153768"
"cpu-p-298.153769"
"cpu-p-298.153770"
"cpu-p-298.153771"
"cpu-p-298.153772"
"cpu-p-298.153773"
"cpu-p-298.153774"
"cpu-p-298.153775"
"cpu-p-298.153776"
"cpu-p-298.153777"
"cpu-p-298.153778"
"cpu-p-298.153779"
"cpu-p-298.153780"
"cpu-p-298.153781"
"cpu-p-298.153782"
"cpu-p-298.153783"
"cpu-p-298.153784"
"cpu-p-298.153785"
"cpu-p-298.153786"
"cpu-p-298.153787"
"cpu-p-298.153788"
"cpu-p-298.153789"
"cpu-p-298.153790"
"cpu-p-298.153791"
"cpu-p-298.153792"
"cpu-p-298.153793"
"cpu-p-298.153794"
"cpu-p-298.153795"
"cpu-p-298.153796"
"cpu-p-298.153797"
"cpu-p-298.153798"
"cpu-p-298.153799"
"cpu-p-298.153800"
"cpu-p-298.153801"
"cpu-p-298.153802"
"cpu-p-298.153803"
"cpu-p-298.153804"
"cpu-p-298.153805"
"cpu-p-298.153806"
"cpu-p-298.153807"
"cpu-p-298.153808"
"cpu-p-298.153809"
"cpu-p-298.153810"
"cpu-p-298.153811"
"cpu-p-298.153812"
"cpu-p-298.153813"
"cpu-p-298.153814"
"cpu-p-298.153815"
"cpu-p-298.153816"
"cpu-p-298.153817"
"cpu-p-299.61320"
"cpu-p-299.61321"
"cpu-p-299.61322"
"cpu-p-299.61323"
"cpu-p-299.61324"
"cpu-p-299.61325"
"cpu-p-299.61326"
"cpu-p-299.61327"
"cpu-p-299.61328"
"cpu-p-299.61329"
"cpu-p-299.61330"
"cpu-p-299.61331"
"cpu-p-299.61332"
"cpu-p-299.61333"
"cpu-p-299.61334"
"cpu-p-299.61335"
"cpu-p-299.61336"
"cpu-p-299.61337"
"cpu-p-299.61338"
"cpu-p-299.61339"
"cpu-p-299.61340"
"cpu-p-299.61341"
"cpu-p-299.61342"
"cpu-p-299.61343"
"cpu-p-299.61344"
"cpu-p-299.61345"
"cpu-p-299.61346"
"cpu-p-299.61347"
"cpu-p-299.61348"
"cpu-p-299.61349"
"cpu-p-299.61350"
"cpu-p-299.61351"
"cpu-p-299.61352"
"cpu-p-299.61353"
"cpu-p-299.61354"
"cpu-p-299.61355"
"cpu-p-299.61356"
"cpu-p-299.61357"
"cpu-p-299.61358"
"cpu-p-299.61359"
"cpu-p-299.61360"
"cpu-p-299.61361"
"cpu-p-299.61362"
"cpu-p-299.61363"
"cpu-p-299.61364"
"cpu-p-299.61365"
"cpu-p-299.61366"
"cpu-p-299.61367"
"cpu-p-299.61368"
"cpu-p-299.61369"
"cpu-p-299.61370"
"cpu-p-299.61371"
"cpu-p-299.61372"
"cpu-p-299.61373"
"cpu-p-299.61374"
"cpu-p-299.61375"
"cpu-p-300.82549"
"cpu-p-300.82550"
"cpu-p-300.82551"
"cpu-p-300.82552"
"cpu-p-300.82553"
"cpu-p-300.82554"
"cpu-p-300.82555"
"cpu-p-300.82556"
"cpu-p-300.82557"
"cpu-p-300.82558"
"cpu-p-300.82559"
"cpu-p-300.82560"
"cpu-p-300.82561"
"cpu-p-300.82562"
"cpu-p-300.82563"
"cpu-p-300.82564"
"cpu-p-300.82565"
"cpu-p-300.82566"
"cpu-p-300.82567"
"cpu-p-300.82568"
"cpu-p-300.82569"
"cpu-p-300.82570"
"cpu-p-300.82571"
"cpu-p-300.82572"
"cpu-p-300.82573"
"cpu-p-300.82574"
"cpu-p-300.82575"
"cpu-p-300.82576"
"cpu-p-300.82577"
"cpu-p-300.82578"
"cpu-p-300.82579"
"cpu-p-300.82580"
"cpu-p-300.82581"
"cpu-p-300.82582"
"cpu-p-300.82583"
"cpu-p-300.82584"
"cpu-p-300.82585"
"cpu-p-300.82586"
"cpu-p-300.82587"
"cpu-p-300.82588"
"cpu-p-300.82589"
"cpu-p-300.82590"
"cpu-p-300.82591"
"cpu-p-300.82592"
"cpu-p-300.82593"
"cpu-p-300.82594"
"cpu-p-300.82595"
"cpu-p-300.82596"
"cpu-p-300.82597"
"cpu-p-300.82598"
"cpu-p-300.82599"
"cpu-p-300.82600"
"cpu-p-300.82601"
"cpu-p-300.82602"
"cpu-p-300.82603"
"cpu-p-300.82604"
"cpu-p-301.78605"
"cpu-p-301.78606"
"cpu-p-301.78607"
"cpu-p-301.78608"
"cpu-p-301.78609"
"cpu-p-301.78610"
"cpu-p-301.78611"
"cpu-p-301.78612"
"cpu-p-301.78613"
"cpu-p-301.78614"
"cpu-p-301.78615"
"cpu-p-301.78616"
"cpu-p-301.78617"
"cpu-p-301.78618"
"cpu-p-301.78619"
"cpu-p-301.78620"
"cpu-p-301.78621"
"cpu-p-301.78622"
"cpu-p-301.78623"
"cpu-p-301.78624"
"cpu-p-301.78625"
"cpu-p-301.78626"
"cpu-p-301.78627"
"cpu-p-301.78628"
"cpu-p-301.78629"
"cpu-p-301.78630"
"cpu-p-301.78631"
"cpu-p-301.78632"
"cpu-p-301.78633"
"cpu-p-301.78634"
"cpu-p-301.78635"
"cpu-p-301.78636"
"cpu-p-301.78637"
"cpu-p-301.78638"
"cpu-p-301.78639"
"cpu-p-301.78640"
"cpu-p-301.78641"
"cpu-p-301.78642"
"cpu-p-301.78643"
"cpu-p-301.78644"
"cpu-p-301.78645"
"cpu-p-301.78646"
"cpu-p-301.78647"
"cpu-p-301.78648"
"cpu-p-301.78649"
"cpu-p-301.78650"
"cpu-p-301.78651"
"cpu-p-301.78652"
"cpu-p-301.78653"
"cpu-p-301.78654"
"cpu-p-301.78655"
"cpu-p-301.78656"
"cpu-p-301.78657"
"cpu-p-301.78658"
"cpu-p-301.78659"
"cpu-p-301.78660"
"cpu-p-302.47859"
"cpu-p-302.47860"
"cpu-p-302.47861"
"cpu-p-302.47862"
"cpu-p-302.47863"
"cpu-p-302.47864"
"cpu-p-302.47865"
"cpu-p-302.47866"
"cpu-p-302.47867"
"cpu-p-302.47868"
"cpu-p-302.47869"
"cpu-p-302.47870"
"cpu-p-302.47871"
"cpu-p-302.47872"
"cpu-p-302.47873"
"cpu-p-302.47874"
"cpu-p-302.47875"
"cpu-p-302.47876"
"cpu-p-302.47877"
"cpu-p-302.47878"
"cpu-p-302.47879"
"cpu-p-302.47880"
"cpu-p-302.47881"
"cpu-p-302.47882"
"cpu-p-302.47883"
"cpu-p-302.47884"
"cpu-p-302.47885"
"cpu-p-302.47886"
"cpu-p-302.47887"
"cpu-p-302.47888"
"cpu-p-302.47889"
"cpu-p-302.47890"
"cpu-p-302.47891"
"cpu-p-302.47892"
"cpu-p-302.47893"
"cpu-p-302.47894"
"cpu-p-302.47895"
"cpu-p-302.47896"
"cpu-p-302.47897"
"cpu-p-302.47898"
"cpu-p-302.47899"
"cpu-p-302.47900"
"cpu-p-302.47901"
"cpu-p-302.47902"
"cpu-p-302.47903"
"cpu-p-302.47904"
"cpu-p-302.47905"
"cpu-p-302.47906"
"cpu-p-302.47907"
"cpu-p-302.47908"
"cpu-p-302.47909"
"cpu-p-302.47910"
"cpu-p-302.47911"
"cpu-p-302.47912"
"cpu-p-302.47913"
"cpu-p-302.47914"
"cpu-p-303.229242"
"cpu-p-303.229243"
"cpu-p-303.229244"
"cpu-p-303.229245"
"cpu-p-303.229246"
"cpu-p-303.229247"
"cpu-p-303.229248"
"cpu-p-303.229249"
"cpu-p-303.229250"
"cpu-p-303.229251"
"cpu-p-303.229252"
"cpu-p-303.229253"
"cpu-p-303.229254"
"cpu-p-303.229255"
"cpu-p-303.229256"
"cpu-p-303.229257"
"cpu-p-303.229258"
"cpu-p-303.229259"
"cpu-p-303.229260"
"cpu-p-303.229261"
"cpu-p-303.229262"
"cpu-p-303.229263"
"cpu-p-303.229264"
"cpu-p-303.229265"
"cpu-p-303.229266"
"cpu-p-303.229267"
"cpu-p-303.229268"
"cpu-p-303.229269"
"cpu-p-303.229270"
"cpu-p-303.229271"
"cpu-p-303.229272"
"cpu-p-303.229273"
"cpu-p-303.229274"
"cpu-p-303.229275"
"cpu-p-303.229276"
"cpu-p-303.229277"
"cpu-p-303.229278"
"cpu-p-303.229279"
"cpu-p-303.229280"
"cpu-p-303.229281"
"cpu-p-303.229282"
"cpu-p-303.229283"
"cpu-p-303.229284"
"cpu-p-303.229285"
"cpu-p-303.229286"
"cpu-p-303.229287"
"cpu-p-303.229288"
"cpu-p-303.229289"
"cpu-p-303.229290"
"cpu-p-303.229291"
"cpu-p-303.229292"
"cpu-p-303.229293"
"cpu-p-303.229294"
"cpu-p-303.229295"
"cpu-p-303.229296"
"cpu-p-303.229297"
"cpu-p-304.285028"
"cpu-p-304.285029"
"cpu-p-304.285030"
"cpu-p-304.285031"
"cpu-p-304.285032"
"cpu-p-304.285033"
"cpu-p-304.285034"
"cpu-p-304.285035"
"cpu-p-304.285036"
"cpu-p-304.285037"
"cpu-p-304.285038"
"cpu-p-304.285039"
"cpu-p-304.285040"
"cpu-p-304.285041"
"cpu-p-304.285042"
"cpu-p-304.285043"
"cpu-p-304.285044"
"cpu-p-304.285045"
"cpu-p-304.285046"
"cpu-p-304.285047"
"cpu-p-304.285048"
"cpu-p-304.285049"
"cpu-p-304.285050"
"cpu-p-304.285051"
"cpu-p-304.285052"
"cpu-p-304.285053"
"cpu-p-304.285054"
"cpu-p-304.285055"
"cpu-p-304.285056"
"cpu-p-304.285057"
"cpu-p-304.285058"
"cpu-p-304.285059"
"cpu-p-304.285060"
"cpu-p-304.285061"
"cpu-p-304.285062"
"cpu-p-304.285063"
"cpu-p-304.285064"
"cpu-p-304.285065"
"cpu-p-304.285066"
"cpu-p-304.285067"
"cpu-p-304.285068"
"cpu-p-304.285069"
"cpu-p-304.285070"
"cpu-p-304.285071"
"cpu-p-304.285072"
"cpu-p-304.285073"
"cpu-p-304.285074"
"cpu-p-304.285075"
"cpu-p-304.285076"
"cpu-p-304.285077"
"cpu-p-304.285078"
"cpu-p-304.285079"
"cpu-p-304.285080"
"cpu-p-304.285081"
"cpu-p-304.285082"
"cpu-p-304.285083"
"cpu-p-305.601"
"cpu-p-305.602"
"cpu-p-305.603"
"cpu-p-305.604"
"cpu-p-305.605"
"cpu-p-305.606"
"cpu-p-305.607"
"cpu-p-305.608"
"cpu-p-305.609"
"cpu-p-305.610"
"cpu-p-305.611"
"cpu-p-305.612"
"cpu-p-305.613"
"cpu-p-305.614"
"cpu-p-305.615"
"cpu-p-305.616"
"cpu-p-305.617"
"cpu-p-305.618"
"cpu-p-305.619"
"cpu-p-305.620"
"cpu-p-305.621"
"cpu-p-305.622"
"cpu-p-305.623"
"cpu-p-305.624"
"cpu-p-305.625"
"cpu-p-305.626"
"cpu-p-305.627"
"cpu-p-305.628"
"cpu-p-305.629"
"cpu-p-305.630"
"cpu-p-305.631"
"cpu-p-305.632"
"cpu-p-305.633"
"cpu-p-305.634"
"cpu-p-305.635"
"cpu-p-305.636"
"cpu-p-305.637"
"cpu-p-305.638"
"cpu-p-305.639"
"cpu-p-305.640"
"cpu-p-305.641"
"cpu-p-305.642"
"cpu-p-305.643"
"cpu-p-305.644"
"cpu-p-305.645"
"cpu-p-305.646"
"cpu-p-305.647"
"cpu-p-305.648"
"cpu-p-305.649"
"cpu-p-305.650"
"cpu-p-305.651"
"cpu-p-305.652"
"cpu-p-305.653"
"cpu-p-305.654"
"cpu-p-305.655"
"cpu-p-305.656"
"cpu-p-306.280602"
"cpu-p-306.280603"
"cpu-p-306.280604"
"cpu-p-306.280605"
"cpu-p-306.280606"
"cpu-p-306.280607"
"cpu-p-306.280608"
"cpu-p-306.280609"
"cpu-p-306.280610"
"cpu-p-306.280611"
"cpu-p-306.280612"
"cpu-p-306.280613"
"cpu-p-306.280614"
"cpu-p-306.280615"
"cpu-p-306.280616"
"cpu-p-306.280617"
"cpu-p-306.280618"
"cpu-p-306.280619"
"cpu-p-306.280620"
"cpu-p-306.280621"
"cpu-p-306.280622"
"cpu-p-306.280623"
"cpu-p-306.280624"
"cpu-p-306.280625"
"cpu-p-306.280626"
"cpu-p-306.280627"
"cpu-p-306.280628"
"cpu-p-306.280629"
"cpu-p-306.280630"
"cpu-p-306.280631"
"cpu-p-306.280632"
"cpu-p-306.280633"
"cpu-p-306.280634"
"cpu-p-306.280635"
"cpu-p-306.280636"
"cpu-p-306.280637"
"cpu-p-306.280638"
"cpu-p-306.280639"
"cpu-p-306.280640"
"cpu-p-306.280641"
"cpu-p-306.280642"
"cpu-p-306.280643"
"cpu-p-306.280644"
"cpu-p-306.280645"
"cpu-p-306.280646"
"cpu-p-306.280647"
"cpu-p-306.280648"
"cpu-p-306.280649"
"cpu-p-306.280650"
"cpu-p-306.280651"
"cpu-p-306.280652"
"cpu-p-306.280653"
"cpu-p-306.280654"
"cpu-p-306.280655"
"cpu-p-306.280656"
"cpu-p-306.280657"
"cpu-p-307.245990"
"cpu-p-307.245991"
"cpu-p-307.245992"
"cpu-p-307.245993"
"cpu-p-307.245994"
"cpu-p-307.245995"
"cpu-p-307.245996"
"cpu-p-307.245997"
"cpu-p-307.245998"
"cpu-p-307.245999"
"cpu-p-307.246000"
"cpu-p-307.246001"
"cpu-p-307.246002"
"cpu-p-307.246003"
"cpu-p-307.246004"
"cpu-p-307.246005"
"cpu-p-307.246006"
"cpu-p-307.246007"
"cpu-p-307.246008"
"cpu-p-307.246009"
"cpu-p-307.246010"
"cpu-p-307.246011"
"cpu-p-307.246012"
"cpu-p-307.246013"
"cpu-p-307.246014"
"cpu-p-307.246015"
"cpu-p-307.246016"
"cpu-p-307.246017"
"cpu-p-307.246018"
"cpu-p-307.246019"
"cpu-p-307.246020"
"cpu-p-307.246021"
"cpu-p-307.246022"
"cpu-p-307.246023"
"cpu-p-307.246024"
"cpu-p-307.246025"
"cpu-p-307.246026"
"cpu-p-307.246027"
"cpu-p-307.246028"
"cpu-p-307.246029"
"cpu-p-307.246030"
"cpu-p-307.246031"
"cpu-p-307.246032"
"cpu-p-307.246033"
"cpu-p-307.246034"
"cpu-p-307.246035"
"cpu-p-307.246036"
"cpu-p-307.246037"
"cpu-p-307.246038"
"cpu-p-307.246039"
"cpu-p-307.246040"
"cpu-p-307.246041"
"cpu-p-307.246042"
"cpu-p-307.246043"
"cpu-p-307.246044"
"cpu-p-307.246045"
"cpu-p-308.259138"
"cpu-p-308.259139"
"cpu-p-308.259140"
"cpu-p-308.259141"
"cpu-p-308.259142"
"cpu-p-308.259143"
"cpu-p-308.259144"
"cpu-p-308.259145"
"cpu-p-308.259146"
"cpu-p-308.259147"
"cpu-p-308.259148"
"cpu-p-308.259149"
"cpu-p-308.259150"
"cpu-p-308.259151"
"cpu-p-308.259152"
"cpu-p-308.259153"
"cpu-p-308.259154"
"cpu-p-308.259155"
"cpu-p-308.259156"
"cpu-p-308.259157"
"cpu-p-308.259158"
"cpu-p-308.259159"
"cpu-p-308.259160"
"cpu-p-308.259161"
"cpu-p-308.259162"
"cpu-p-308.259163"
"cpu-p-308.259164"
"cpu-p-308.259165"
"cpu-p-308.259166"
"cpu-p-308.259167"
"cpu-p-308.259168"
"cpu-p-308.259169"
"cpu-p-308.259170"
"cpu-p-308.259171"
"cpu-p-308.259172"
"cpu-p-308.259173"
"cpu-p-308.259174"
"cpu-p-308.259175"
"cpu-p-308.259176"
"cpu-p-308.259177"
"cpu-p-308.259178"
"cpu-p-308.259179"
"cpu-p-308.259180"
"cpu-p-308.259181"
"cpu-p-308.259182"
"cpu-p-308.259183"
"cpu-p-308.259184"
"cpu-p-308.259185"
"cpu-p-308.259186"
"cpu-p-308.259187"
"cpu-p-308.259188"
"cpu-p-308.259189"
"cpu-p-308.259190"
"cpu-p-308.259191"
"cpu-p-308.259192"
"cpu-p-308.259193"
"cpu-p-309.264277"
"cpu-p-309.264278"
"cpu-p-309.264279"
"cpu-p-309.264280"
"cpu-p-309.264281"
"cpu-p-309.264282"
"cpu-p-309.264283"
"cpu-p-309.264284"
"cpu-p-309.264285"
"cpu-p-309.264286"
"cpu-p-309.264287"
"cpu-p-309.264288"
"cpu-p-309.264289"
"cpu-p-309.264290"
"cpu-p-309.264291"
"cpu-p-309.264292"
"cpu-p-309.264293"
"cpu-p-309.264294"
"cpu-p-309.264295"
"cpu-p-309.264296"
"cpu-p-309.264297"
"cpu-p-309.264298"
"cpu-p-309.264299"
"cpu-p-309.264300"
"cpu-p-309.264301"
"cpu-p-309.264302"
"cpu-p-309.264303"
"cpu-p-309.264304"
"cpu-p-309.264305"
"cpu-p-309.264306"
"cpu-p-309.264307"
"cpu-p-309.264308"
"cpu-p-309.264309"
"cpu-p-309.264310"
"cpu-p-309.264311"
"cpu-p-309.264312"
"cpu-p-309.264313"
"cpu-p-309.264314"
"cpu-p-309.264315"
"cpu-p-309.264316"
"cpu-p-309.264317"
"cpu-p-309.264318"
"cpu-p-309.264319"
"cpu-p-309.264320"
"cpu-p-309.264321"
"cpu-p-309.264322"
"cpu-p-309.264323"
"cpu-p-309.264324"
"cpu-p-309.264325"
"cpu-p-309.264326"
"cpu-p-309.264327"
"cpu-p-309.264328"
"cpu-p-309.264329"
"cpu-p-309.264330"
"cpu-p-309.264331"
"cpu-p-309.264332"
"cpu-p-310.244278"
"cpu-p-310.244279"
"cpu-p-310.244280"
"cpu-p-310.244281"
"cpu-p-310.244282"
"cpu-p-310.244283"
"cpu-p-310.244284"
"cpu-p-310.244285"
"cpu-p-310.244286"
"cpu-p-310.244287"
"cpu-p-310.244288"
"cpu-p-310.244289"
"cpu-p-310.244290"
"cpu-p-310.244291"
"cpu-p-310.244292"
"cpu-p-310.244293"
"cpu-p-310.244294"
"cpu-p-310.244295"
"cpu-p-310.244296"
"cpu-p-310.244297"
"cpu-p-310.244298"
"cpu-p-310.244299"
"cpu-p-310.244300"
"cpu-p-310.244301"
"cpu-p-310.244302"
"cpu-p-310.244303"
"cpu-p-310.244304"
"cpu-p-310.244305"
"cpu-p-310.244306"
"cpu-p-310.244307"
"cpu-p-310.244308"
"cpu-p-310.244309"
"cpu-p-310.244310"
"cpu-p-310.244311"
"cpu-p-310.244312"
"cpu-p-310.244313"
"cpu-p-310.244314"
"cpu-p-310.244315"
"cpu-p-310.244316"
"cpu-p-310.244317"
"cpu-p-310.244318"
"cpu-p-310.244319"
"cpu-p-310.244320"
"cpu-p-310.244321"
"cpu-p-310.244322"
"cpu-p-310.244323"
"cpu-p-310.244324"
"cpu-p-310.244325"
"cpu-p-310.244326"
"cpu-p-310.244327"
"cpu-p-310.244328"
"cpu-p-310.244329"
"cpu-p-310.244330"
"cpu-p-310.244331"
"cpu-p-310.244332"
"cpu-p-310.244333"
"cpu-p-311.131902"
"cpu-p-311.131903"
"cpu-p-311.131904"
"cpu-p-311.131905"
"cpu-p-311.131906"
"cpu-p-311.131907"
"cpu-p-311.131908"
"cpu-p-311.131909"
"cpu-p-311.131910"
"cpu-p-311.131911"
"cpu-p-311.131912"
"cpu-p-311.131913"
"cpu-p-311.131914"
"cpu-p-311.131915"
"cpu-p-311.131916"
"cpu-p-311.131917"
"cpu-p-311.131918"
"cpu-p-311.131919"
"cpu-p-311.131920"
"cpu-p-311.131921"
"cpu-p-311.131922"
"cpu-p-311.131923"
"cpu-p-311.131924"
"cpu-p-311.131925"
"cpu-p-311.131926"
"cpu-p-311.131927"
"cpu-p-311.131928"
"cpu-p-311.131929"
"cpu-p-311.131930"
"cpu-p-311.131931"
"cpu-p-311.131932"
"cpu-p-311.131933"
"cpu-p-311.131934"
"cpu-p-311.131935"
"cpu-p-311.131936"
"cpu-p-311.131937"
"cpu-p-311.131938"
"cpu-p-311.131939"
"cpu-p-311.131940"
"cpu-p-311.131941"
"cpu-p-311.131942"
"cpu-p-311.131943"
"cpu-p-311.131944"
"cpu-p-311.131945"
"cpu-p-311.131946"
"cpu-p-311.131947"
"cpu-p-311.131948"
"cpu-p-311.131949"
"cpu-p-311.131950"
"cpu-p-311.131951"
"cpu-p-311.131952"
"cpu-p-311.131953"
"cpu-p-311.131954"
"cpu-p-311.131955"
"cpu-p-311.131956"
"cpu-p-311.131957"
"cpu-p-312.39574"
"cpu-p-312.39575"
"cpu-p-312.39576"
"cpu-p-312.39577"
"cpu-p-312.39578"
"cpu-p-312.39579"
"cpu-p-312.39580"
"cpu-p-312.39581"
"cpu-p-312.39582"
"cpu-p-312.39583"
"cpu-p-312.39584"
"cpu-p-312.39585"
"cpu-p-312.39586"
"cpu-p-312.39587"
"cpu-p-312.39588"
"cpu-p-312.39589"
"cpu-p-312.39590"
"cpu-p-312.39591"
"cpu-p-312.39592"
"cpu-p-312.39593"
"cpu-p-312.39594"
"cpu-p-312.39595"
"cpu-p-312.39596"
"cpu-p-312.39597"
"cpu-p-312.39598"
"cpu-p-312.39599"
"cpu-p-312.39600"
"cpu-p-312.39601"
"cpu-p-312.39602"
"cpu-p-312.39603"
"cpu-p-312.39604"
"cpu-p-312.39605"
"cpu-p-312.39606"
"cpu-p-312.39607"
"cpu-p-312.39608"
"cpu-p-312.39609"
"cpu-p-312.39610"
"cpu-p-312.39611"
"cpu-p-312.39612"
"cpu-p-312.39613"
"cpu-p-312.39614"
"cpu-p-312.39615"
"cpu-p-312.39616"
"cpu-p-312.39617"
"cpu-p-312.39618"
"cpu-p-312.39619"
"cpu-p-312.39620"
"cpu-p-312.39621"
"cpu-p-312.39622"
"cpu-p-312.39623"
"cpu-p-312.39624"
"cpu-p-312.39625"
"cpu-p-312.39626"
"cpu-p-312.39627"
"cpu-p-312.39628"
"cpu-p-312.39629"
"cpu-p-313.30958"
"cpu-p-313.30959"
"cpu-p-313.30960"
"cpu-p-313.30961"
"cpu-p-313.30962"
"cpu-p-313.30963"
"cpu-p-313.30964"
"cpu-p-313.30965"
"cpu-p-313.30966"
"cpu-p-313.30967"
"cpu-p-313.30968"
"cpu-p-313.30969"
"cpu-p-313.30970"
"cpu-p-313.30971"
"cpu-p-313.30972"
"cpu-p-313.30973"
"cpu-p-313.30974"
"cpu-p-313.30975"
"cpu-p-313.30976"
"cpu-p-313.30977"
"cpu-p-313.30978"
"cpu-p-313.30979"
"cpu-p-313.30980"
"cpu-p-313.30981"
"cpu-p-313.30982"
"cpu-p-313.30983"
"cpu-p-313.30984"
"cpu-p-313.30985"
"cpu-p-313.30986"
"cpu-p-313.30987"
"cpu-p-313.30988"
"cpu-p-313.30989"
"cpu-p-313.30990"
"cpu-p-313.30991"
"cpu-p-313.30992"
"cpu-p-313.30993"
"cpu-p-313.30994"
"cpu-p-313.30995"
"cpu-p-313.30996"
"cpu-p-313.30997"
"cpu-p-313.30998"
"cpu-p-313.30999"
"cpu-p-313.31000"
"cpu-p-313.31001"
"cpu-p-313.31002"
"cpu-p-313.31003"
"cpu-p-313.31004"
"cpu-p-313.31005"
"cpu-p-313.31006"
"cpu-p-313.31007"
"cpu-p-313.31008"
"cpu-p-313.31009"
"cpu-p-313.31010"
"cpu-p-313.31011"
"cpu-p-313.31012"
"cpu-p-313.31013"
"cpu-p-314.240078"
"cpu-p-314.240079"
"cpu-p-314.240080"
"cpu-p-314.240081"
"cpu-p-314.240082"
"cpu-p-314.240083"
"cpu-p-314.240084"
"cpu-p-314.240085"
"cpu-p-314.240086"
"cpu-p-314.240087"
"cpu-p-314.240088"
"cpu-p-314.240089"
"cpu-p-314.240090"
"cpu-p-314.240091"
"cpu-p-314.240092"
"cpu-p-314.240093"
"cpu-p-314.240094"
"cpu-p-314.240095"
"cpu-p-314.240096"
"cpu-p-314.240097"
"cpu-p-314.240098"
"cpu-p-314.240099"
"cpu-p-314.240100"
"cpu-p-314.240101"
"cpu-p-314.240102"
"cpu-p-314.240103"
"cpu-p-314.240104"
"cpu-p-314.240105"
"cpu-p-314.240106"
"cpu-p-314.240107"
"cpu-p-314.240108"
"cpu-p-314.240109"
"cpu-p-314.240110"
"cpu-p-314.240111"
"cpu-p-314.240112"
"cpu-p-314.240113"
"cpu-p-314.240114"
"cpu-p-314.240115"
"cpu-p-314.240116"
"cpu-p-314.240117"
"cpu-p-314.240118"
"cpu-p-314.240119"
"cpu-p-314.240120"
"cpu-p-314.240121"
"cpu-p-314.240122"
"cpu-p-314.240123"
"cpu-p-314.240124"
"cpu-p-314.240125"
"cpu-p-314.240126"
"cpu-p-314.240127"
"cpu-p-314.240128"
"cpu-p-314.240129"
"cpu-p-314.240130"
"cpu-p-314.240131"
"cpu-p-314.240132"
"cpu-p-314.240133"
"cpu-p-315.254082"
"cpu-p-315.254083"
"cpu-p-315.254084"
"cpu-p-315.254085"
"cpu-p-315.254086"
"cpu-p-315.254087"
"cpu-p-315.254088"
"cpu-p-315.254089"
"cpu-p-315.254090"
"cpu-p-315.254091"
"cpu-p-315.254092"
"cpu-p-315.254093"
"cpu-p-315.254094"
"cpu-p-315.254095"
"cpu-p-315.254096"
"cpu-p-315.254097"
"cpu-p-315.254098"
"cpu-p-315.254099"
"cpu-p-315.254100"
"cpu-p-315.254101"
"cpu-p-315.254102"
"cpu-p-315.254103"
"cpu-p-315.254104"
"cpu-p-315.254105"
"cpu-p-315.254106"
"cpu-p-315.254107"
"cpu-p-315.254108"
"cpu-p-315.254109"
"cpu-p-315.254110"
"cpu-p-315.254111"
"cpu-p-315.254112"
"cpu-p-315.254113"
"cpu-p-315.254114"
"cpu-p-315.254115"
"cpu-p-315.254116"
"cpu-p-315.254117"
"cpu-p-315.254118"
"cpu-p-315.254119"
"cpu-p-315.254120"
"cpu-p-315.254121"
"cpu-p-315.254122"
"cpu-p-315.254123"
"cpu-p-315.254124"
"cpu-p-315.254125"
"cpu-p-315.254126"
"cpu-p-315.254127"
"cpu-p-315.254128"
"cpu-p-315.254129"
"cpu-p-315.254130"
"cpu-p-315.254131"
"cpu-p-315.254132"
"cpu-p-315.254133"
"cpu-p-315.254134"
"cpu-p-315.254135"
"cpu-p-315.254136"
"cpu-p-315.254137"
"cpu-p-316.230044"
"cpu-p-316.230045"
"cpu-p-316.230046"
"cpu-p-316.230047"
"cpu-p-316.230048"
"cpu-p-316.230049"
"cpu-p-316.230050"
"cpu-p-316.230051"
"cpu-p-316.230052"
"cpu-p-316.230053"
"cpu-p-316.230054"
"cpu-p-316.230055"
"cpu-p-316.230056"
"cpu-p-316.230057"
"cpu-p-316.230058"
"cpu-p-316.230059"
"cpu-p-316.230060"
"cpu-p-316.230061"
"cpu-p-316.230062"
"cpu-p-316.230063"
"cpu-p-316.230064"
"cpu-p-316.230065"
"cpu-p-316.230066"
"cpu-p-316.230067"
"cpu-p-316.230068"
"cpu-p-316.230069"
"cpu-p-316.230070"
"cpu-p-316.230071"
"cpu-p-316.230072"
"cpu-p-316.230073"
"cpu-p-316.230074"
"cpu-p-316.230075"
"cpu-p-316.230076"
"cpu-p-316.230077"
"cpu-p-316.230078"
"cpu-p-316.230079"
"cpu-p-316.230080"
"cpu-p-316.230081"
"cpu-p-316.230082"
"cpu-p-316.230083"
"cpu-p-316.230084"
"cpu-p-316.230085"
"cpu-p-316.230086"
"cpu-p-316.230087"
"cpu-p-316.230088"
"cpu-p-316.230089"
"cpu-p-316.230090"
"cpu-p-316.230091"
"cpu-p-316.230092"
"cpu-p-316.230093"
"cpu-p-316.230094"
"cpu-p-316.230095"
"cpu-p-316.230096"
"cpu-p-316.230097"
"cpu-p-316.230098"
"cpu-p-316.230099"
"cpu-p-317.225846"
"cpu-p-317.225847"
"cpu-p-317.225848"
"cpu-p-317.225849"
"cpu-p-317.225850"
"cpu-p-317.225851"
"cpu-p-317.225852"
"cpu-p-317.225853"
"cpu-p-317.225854"
"cpu-p-317.225855"
"cpu-p-317.225856"
"cpu-p-317.225857"
"cpu-p-317.225858"
"cpu-p-317.225859"
"cpu-p-317.225860"
"cpu-p-317.225861"
"cpu-p-317.225862"
"cpu-p-317.225863"
"cpu-p-317.225864"
"cpu-p-317.225865"
"cpu-p-317.225866"
"cpu-p-317.225867"
"cpu-p-317.225868"
"cpu-p-317.225869"
"cpu-p-317.225870"
"cpu-p-317.225871"
"cpu-p-317.225872"
"cpu-p-317.225873"
"cpu-p-317.225874"
"cpu-p-317.225875"
"cpu-p-317.225876"
"cpu-p-317.225877"
"cpu-p-317.225878"
"cpu-p-317.225879"
"cpu-p-317.225880"
"cpu-p-317.225881"
"cpu-p-317.225882"
"cpu-p-317.225883"
"cpu-p-317.225884"
"cpu-p-317.225885"
"cpu-p-317.225886"
"cpu-p-317.225887"
"cpu-p-317.225888"
"cpu-p-317.225889"
"cpu-p-317.225890"
"cpu-p-317.225891"
"cpu-p-317.225892"
"cpu-p-317.225893"
"cpu-p-317.225894"
"cpu-p-317.225895"
"cpu-p-317.225896"
"cpu-p-317.225897"
"cpu-p-317.225898"
"cpu-p-317.225899"
"cpu-p-317.225900"
"cpu-p-317.225901"
"cpu-p-318.235144"
"cpu-p-318.235145"
"cpu-p-318.235146"
"cpu-p-318.235147"
"cpu-p-318.235148"
"cpu-p-318.235149"
"cpu-p-318.235150"
"cpu-p-318.235151"
"cpu-p-318.235152"
"cpu-p-318.235153"
"cpu-p-318.235154"
"cpu-p-318.235155"
"cpu-p-318.235156"
"cpu-p-318.235157"
"cpu-p-318.235158"
"cpu-p-318.235159"
"cpu-p-318.235160"
"cpu-p-318.235161"
"cpu-p-318.235162"
"cpu-p-318.235163"
"cpu-p-318.235164"
"cpu-p-318.235165"
"cpu-p-318.235166"
"cpu-p-318.235167"
"cpu-p-318.235168"
"cpu-p-318.235169"
"cpu-p-318.235170"
"cpu-p-318.235171"
"cpu-p-318.235172"
"cpu-p-318.235173"
"cpu-p-318.235174"
"cpu-p-318.235175"
"cpu-p-318.235176"
"cpu-p-318.235177"
"cpu-p-318.235178"
"cpu-p-318.235179"
"cpu-p-318.235180"
"cpu-p-318.235181"
"cpu-p-318.235182"
"cpu-p-318.235183"
"cpu-p-318.235184"
"cpu-p-318.235185"
"cpu-p-318.235186"
"cpu-p-318.235187"
"cpu-p-318.235188"
"cpu-p-318.235189"
"cpu-p-318.235190"
"cpu-p-318.235191"
"cpu-p-318.235192"
"cpu-p-318.235193"
"cpu-p-318.235194"
"cpu-p-318.235195"
"cpu-p-318.235196"
"cpu-p-318.235197"
"cpu-p-318.235198"
"cpu-p-318.235199"
"cpu-p-319.227080"
"cpu-p-319.227081"
"cpu-p-319.227082"
"cpu-p-319.227083"
"cpu-p-319.227084"
"cpu-p-319.227085"
"cpu-p-319.227086"
"cpu-p-319.227087"
"cpu-p-319.227088"
"cpu-p-319.227089"
"cpu-p-319.227090"
"cpu-p-319.227091"
"cpu-p-319.227092"
"cpu-p-319.227093"
"cpu-p-319.227094"
"cpu-p-319.227095"
"cpu-p-319.227096"
"cpu-p-319.227097"
"cpu-p-319.227098"
"cpu-p-319.227099"
"cpu-p-319.227100"
"cpu-p-319.227101"
"cpu-p-319.227102"
"cpu-p-319.227103"
"cpu-p-319.227104"
"cpu-p-319.227105"
"cpu-p-319.227106"
"cpu-p-319.227107"
"cpu-p-319.227108"
"cpu-p-319.227109"
"cpu-p-319.227110"
"cpu-p-319.227111"
"cpu-p-319.227112"
"cpu-p-319.227113"
"cpu-p-319.227114"
"cpu-p-319.227115"
"cpu-p-319.227116"
"cpu-p-319.227117"
"cpu-p-319.227118"
"cpu-p-319.227119"
"cpu-p-319.227120"
"cpu-p-319.227121"
"cpu-p-319.227122"
"cpu-p-319.227123"
"cpu-p-319.227124"
"cpu-p-319.227125"
"cpu-p-319.227126"
"cpu-p-319.227127"
"cpu-p-319.227128"
"cpu-p-319.227129"
"cpu-p-319.227130"
"cpu-p-319.227131"
"cpu-p-319.227132"
"cpu-p-319.227133"
"cpu-p-319.227134"
"cpu-p-319.227135"
"cpu-p-320.232777"
"cpu-p-320.232778"
"cpu-p-320.232779"
"cpu-p-320.232780"
"cpu-p-320.232781"
"cpu-p-320.232782"
"cpu-p-320.232783"
"cpu-p-320.232784"
"cpu-p-320.232785"
"cpu-p-320.232786"
"cpu-p-320.232787"
"cpu-p-320.232788"
"cpu-p-320.232789"
"cpu-p-320.232790"
"cpu-p-320.232791"
"cpu-p-320.232792"
"cpu-p-320.232793"
"cpu-p-320.232794"
"cpu-p-320.232795"
"cpu-p-320.232796"
"cpu-p-320.232797"
"cpu-p-320.232798"
"cpu-p-320.232799"
"cpu-p-320.232800"
"cpu-p-320.232801"
"cpu-p-320.232802"
"cpu-p-320.232803"
"cpu-p-320.232804"
"cpu-p-320.232805"
"cpu-p-320.232806"
"cpu-p-320.232807"
"cpu-p-320.232808"
"cpu-p-320.232809"
"cpu-p-320.232810"
"cpu-p-320.232811"
"cpu-p-320.232812"
"cpu-p-320.232813"
"cpu-p-320.232814"
"cpu-p-320.232815"
"cpu-p-320.232816"
"cpu-p-320.232817"
"cpu-p-320.232818"
"cpu-p-320.232819"
"cpu-p-320.232820"
"cpu-p-320.232821"
"cpu-p-320.232822"
"cpu-p-320.232823"
"cpu-p-320.232824"
"cpu-p-320.232825"
"cpu-p-320.232826"
"cpu-p-320.232827"
"cpu-p-320.232828"
"cpu-p-320.232829"
"cpu-p-320.232830"
"cpu-p-320.232831"
"cpu-p-320.232832"
"cpu-p-321.17776"
"cpu-p-321.17777"
"cpu-p-321.17778"
"cpu-p-321.17779"
"cpu-p-321.17780"
"cpu-p-321.17781"
"cpu-p-321.17782"
"cpu-p-321.17783"
"cpu-p-321.17784"
"cpu-p-321.17785"
"cpu-p-321.17786"
"cpu-p-321.17787"
"cpu-p-321.17788"
"cpu-p-321.17789"
"cpu-p-321.17790"
"cpu-p-321.17791"
"cpu-p-321.17792"
"cpu-p-321.17793"
"cpu-p-321.17794"
"cpu-p-321.17795"
"cpu-p-321.17796"
"cpu-p-321.17797"
"cpu-p-321.17798"
"cpu-p-321.17799"
"cpu-p-321.17800"
"cpu-p-321.17801"
"cpu-p-321.17802"
"cpu-p-321.17803"
"cpu-p-321.17804"
"cpu-p-321.17805"
"cpu-p-321.17806"
"cpu-p-321.17807"
"cpu-p-321.17808"
"cpu-p-321.17809"
"cpu-p-321.17810"
"cpu-p-321.17811"
"cpu-p-321.17812"
"cpu-p-321.17813"
"cpu-p-321.17814"
"cpu-p-321.17815"
"cpu-p-321.17816"
"cpu-p-321.17817"
"cpu-p-321.17818"
"cpu-p-321.17819"
"cpu-p-321.17820"
"cpu-p-321.17821"
"cpu-p-321.17822"
"cpu-p-321.17823"
"cpu-p-321.17824"
"cpu-p-321.17825"
"cpu-p-321.17826"
"cpu-p-321.17827"
"cpu-p-321.17828"
"cpu-p-321.17829"
"cpu-p-321.17830"
"cpu-p-321.17831"
"cpu-p-322.11796"
"cpu-p-322.11797"
"cpu-p-322.11798"
"cpu-p-322.11799"
"cpu-p-322.11800"
"cpu-p-322.11801"
"cpu-p-322.11802"
"cpu-p-322.11803"
"cpu-p-322.11804"
"cpu-p-322.11805"
"cpu-p-322.11806"
"cpu-p-322.11807"
"cpu-p-322.11808"
"cpu-p-322.11809"
"cpu-p-322.11810"
"cpu-p-322.11811"
"cpu-p-322.11812"
"cpu-p-322.11813"
"cpu-p-322.11814"
"cpu-p-322.11815"
"cpu-p-322.11816"
"cpu-p-322.11817"
"cpu-p-322.11818"
"cpu-p-322.11819"
"cpu-p-322.11820"
"cpu-p-322.11821"
"cpu-p-322.11822"
"cpu-p-322.11823"
"cpu-p-322.11824"
"cpu-p-322.11825"
"cpu-p-322.11826"
"cpu-p-322.11827"
"cpu-p-322.11828"
"cpu-p-322.11829"
"cpu-p-322.11830"
"cpu-p-322.11831"
"cpu-p-322.11832"
"cpu-p-322.11833"
"cpu-p-322.11834"
"cpu-p-322.11835"
"cpu-p-322.11836"
"cpu-p-322.11837"
"cpu-p-322.11838"
"cpu-p-322.11839"
"cpu-p-322.11840"
"cpu-p-322.11841"
"cpu-p-322.11842"
"cpu-p-322.11843"
"cpu-p-322.11844"
"cpu-p-322.11845"
"cpu-p-322.11846"
"cpu-p-322.11847"
"cpu-p-322.11848"
"cpu-p-322.11849"
"cpu-p-322.11850"
"cpu-p-322.11851"
"cpu-p-323.14539"
"cpu-p-323.14540"
"cpu-p-323.14541"
"cpu-p-323.14542"
"cpu-p-323.14543"
"cpu-p-323.14544"
"cpu-p-323.14545"
"cpu-p-323.14546"
"cpu-p-323.14547"
"cpu-p-323.14548"
"cpu-p-323.14549"
"cpu-p-323.14550"
"cpu-p-323.14551"
"cpu-p-323.14552"
"cpu-p-323.14553"
"cpu-p-323.14554"
"cpu-p-323.14555"
"cpu-p-323.14556"
"cpu-p-323.14557"
"cpu-p-323.14558"
"cpu-p-323.14559"
"cpu-p-323.14560"
"cpu-p-323.14561"
"cpu-p-323.14562"
"cpu-p-323.14563"
"cpu-p-323.14564"
"cpu-p-323.14565"
"cpu-p-323.14566"
"cpu-p-323.14567"
"cpu-p-323.14568"
"cpu-p-323.14569"
"cpu-p-323.14570"
"cpu-p-323.14571"
"cpu-p-323.14572"
"cpu-p-323.14573"
"cpu-p-323.14574"
"cpu-p-323.14575"
"cpu-p-323.14576"
"cpu-p-323.14577"
"cpu-p-323.14578"
"cpu-p-323.14579"
"cpu-p-323.14580"
"cpu-p-323.14581"
"cpu-p-323.14582"
"cpu-p-323.14583"
"cpu-p-323.14584"
"cpu-p-323.14585"
"cpu-p-323.14586"
"cpu-p-323.14587"
"cpu-p-323.14588"
"cpu-p-323.14589"
"cpu-p-323.14590"
"cpu-p-323.14591"
"cpu-p-323.14592"
"cpu-p-323.14593"
"cpu-p-323.14594"
"cpu-p-324.281200"
"cpu-p-324.281201"
"cpu-p-324.281202"
"cpu-p-324.281203"
"cpu-p-324.281204"
"cpu-p-324.281205"
"cpu-p-324.281206"
"cpu-p-324.281207"
"cpu-p-324.281208"
"cpu-p-324.281209"
"cpu-p-324.281210"
"cpu-p-324.281211"
"cpu-p-324.281212"
"cpu-p-324.281213"
"cpu-p-324.281214"
"cpu-p-324.281215"
"cpu-p-324.281216"
"cpu-p-324.281217"
"cpu-p-324.281218"
"cpu-p-324.281219"
"cpu-p-324.281220"
"cpu-p-324.281221"
"cpu-p-324.281222"
"cpu-p-324.281223"
"cpu-p-324.281224"
"cpu-p-324.281225"
"cpu-p-324.281226"
"cpu-p-324.281227"
"cpu-p-324.281228"
"cpu-p-324.281229"
"cpu-p-324.281230"
"cpu-p-324.281231"
"cpu-p-324.281232"
"cpu-p-324.281233"
"cpu-p-324.281234"
"cpu-p-324.281235"
"cpu-p-324.281236"
"cpu-p-324.281237"
"cpu-p-324.281238"
"cpu-p-324.281239"
"cpu-p-324.281240"
"cpu-p-324.281241"
"cpu-p-324.281242"
"cpu-p-324.281243"
"cpu-p-324.281244"
"cpu-p-324.281245"
"cpu-p-324.281246"
"cpu-p-324.281247"
"cpu-p-324.281248"
"cpu-p-324.281249"
"cpu-p-324.281250"
"cpu-p-324.281251"
"cpu-p-324.281252"
"cpu-p-324.281253"
"cpu-p-324.281254"
"cpu-p-324.281255"
"cpu-p-325.207070"
"cpu-p-325.207071"
"cpu-p-325.207072"
"cpu-p-325.207073"
"cpu-p-325.207074"
"cpu-p-325.207075"
"cpu-p-325.207076"
"cpu-p-325.207077"
"cpu-p-325.207078"
"cpu-p-325.207079"
"cpu-p-325.207080"
"cpu-p-325.207081"
"cpu-p-325.207082"
"cpu-p-325.207083"
"cpu-p-325.207084"
"cpu-p-325.207085"
"cpu-p-325.207086"
"cpu-p-325.207087"
"cpu-p-325.207088"
"cpu-p-325.207089"
"cpu-p-325.207090"
"cpu-p-325.207091"
"cpu-p-325.207092"
"cpu-p-325.207093"
"cpu-p-325.207094"
"cpu-p-325.207095"
"cpu-p-325.207096"
"cpu-p-325.207097"
"cpu-p-325.207098"
"cpu-p-325.207099"
"cpu-p-325.207100"
"cpu-p-325.207101"
"cpu-p-325.207102"
"cpu-p-325.207103"
"cpu-p-325.207104"
"cpu-p-325.207105"
"cpu-p-325.207106"
"cpu-p-325.207107"
"cpu-p-325.207108"
"cpu-p-325.207109"
"cpu-p-325.207110"
"cpu-p-325.207111"
"cpu-p-325.207112"
"cpu-p-325.207113"
"cpu-p-325.207114"
"cpu-p-325.207115"
"cpu-p-325.207116"
"cpu-p-325.207117"
"cpu-p-325.207118"
"cpu-p-325.207119"
"cpu-p-325.207120"
"cpu-p-325.207121"
"cpu-p-325.207122"
"cpu-p-325.207123"
"cpu-p-325.207124"
"cpu-p-325.207125"
"cpu-p-326.200323"
"cpu-p-326.200324"
"cpu-p-326.200325"
"cpu-p-326.200326"
"cpu-p-326.200327"
"cpu-p-326.200328"
"cpu-p-326.200329"
"cpu-p-326.200330"
"cpu-p-326.200331"
"cpu-p-326.200332"
"cpu-p-326.200333"
"cpu-p-326.200334"
"cpu-p-326.200335"
"cpu-p-326.200336"
"cpu-p-326.200337"
"cpu-p-326.200338"
"cpu-p-326.200339"
"cpu-p-326.200340"
"cpu-p-326.200341"
"cpu-p-326.200342"
"cpu-p-326.200343"
"cpu-p-326.200344"
"cpu-p-326.200345"
"cpu-p-326.200346"
"cpu-p-326.200347"
"cpu-p-326.200348"
"cpu-p-326.200349"
"cpu-p-326.200350"
"cpu-p-326.200351"
"cpu-p-326.200352"
"cpu-p-326.200353"
"cpu-p-326.200354"
"cpu-p-326.200355"
"cpu-p-326.200356"
"cpu-p-326.200357"
"cpu-p-326.200358"
"cpu-p-326.200359"
"cpu-p-326.200360"
"cpu-p-326.200361"
"cpu-p-326.200362"
"cpu-p-326.200363"
"cpu-p-326.200364"
"cpu-p-326.200365"
"cpu-p-326.200366"
"cpu-p-326.200367"
"cpu-p-326.200368"
"cpu-p-326.200369"
"cpu-p-326.200370"
"cpu-p-326.200371"
"cpu-p-326.200372"
"cpu-p-326.200373"
"cpu-p-326.200374"
"cpu-p-326.200375"
"cpu-p-326.200376"
"cpu-p-326.200377"
"cpu-p-326.200378"
"cpu-p-327.226517"
"cpu-p-327.226518"
"cpu-p-327.226519"
"cpu-p-327.226520"
"cpu-p-327.226521"
"cpu-p-327.226522"
"cpu-p-327.226523"
"cpu-p-327.226524"
"cpu-p-327.226525"
"cpu-p-327.226526"
"cpu-p-327.226527"
"cpu-p-327.226528"
"cpu-p-327.226529"
"cpu-p-327.226530"
"cpu-p-327.226531"
"cpu-p-327.226532"
"cpu-p-327.226533"
"cpu-p-327.226534"
"cpu-p-327.226535"
"cpu-p-327.226536"
"cpu-p-327.226537"
"cpu-p-327.226538"
"cpu-p-327.226539"
"cpu-p-327.226540"
"cpu-p-327.226541"
"cpu-p-327.226542"
"cpu-p-327.226543"
"cpu-p-327.226544"
"cpu-p-327.226545"
"cpu-p-327.226546"
"cpu-p-327.226547"
"cpu-p-327.226548"
"cpu-p-327.226549"
"cpu-p-327.226550"
"cpu-p-327.226551"
"cpu-p-327.226552"
"cpu-p-327.226553"
"cpu-p-327.226554"
"cpu-p-327.226555"
"cpu-p-327.226556"
"cpu-p-327.226557"
"cpu-p-327.226558"
"cpu-p-327.226559"
"cpu-p-327.226560"
"cpu-p-327.226561"
"cpu-p-327.226562"
"cpu-p-327.226563"
"cpu-p-327.226564"
"cpu-p-327.226565"
"cpu-p-327.226566"
"cpu-p-327.226567"
"cpu-p-327.226568"
"cpu-p-327.226569"
"cpu-p-327.226570"
"cpu-p-327.226571"
"cpu-p-327.226572"
"cpu-p-328.193456"
"cpu-p-328.193457"
"cpu-p-328.193458"
"cpu-p-328.193459"
"cpu-p-328.193460"
"cpu-p-328.193461"
"cpu-p-328.193462"
"cpu-p-328.193463"
"cpu-p-328.193464"
"cpu-p-328.193465"
"cpu-p-328.193466"
"cpu-p-328.193467"
"cpu-p-328.193468"
"cpu-p-328.193469"
"cpu-p-328.193470"
"cpu-p-328.193471"
"cpu-p-328.193472"
"cpu-p-328.193473"
"cpu-p-328.193474"
"cpu-p-328.193475"
"cpu-p-328.193476"
"cpu-p-328.193477"
"cpu-p-328.193478"
"cpu-p-328.193479"
"cpu-p-328.193480"
"cpu-p-328.193481"
"cpu-p-328.193482"
"cpu-p-328.193483"
"cpu-p-328.193484"
"cpu-p-328.193485"
"cpu-p-328.193486"
"cpu-p-328.193487"
"cpu-p-328.193488"
"cpu-p-328.193489"
"cpu-p-328.193490"
"cpu-p-328.193491"
"cpu-p-328.193492"
"cpu-p-328.193493"
"cpu-p-328.193494"
"cpu-p-328.193495"
"cpu-p-328.193496"
"cpu-p-328.193497"
"cpu-p-328.193498"
"cpu-p-328.193499"
"cpu-p-328.193500"
"cpu-p-328.193501"
"cpu-p-328.193502"
"cpu-p-328.193503"
"cpu-p-328.193504"
"cpu-p-328.193505"
"cpu-p-328.193506"
"cpu-p-328.193507"
"cpu-p-328.193508"
"cpu-p-328.193509"
"cpu-p-328.193510"
"cpu-p-328.193511"
"cpu-p-329.210486"
"cpu-p-329.210487"
"cpu-p-329.210488"
"cpu-p-329.210489"
"cpu-p-329.210490"
"cpu-p-329.210491"
"cpu-p-329.210492"
"cpu-p-329.210493"
"cpu-p-329.210494"
"cpu-p-329.210495"
"cpu-p-329.210496"
"cpu-p-329.210497"
"cpu-p-329.210498"
"cpu-p-329.210499"
"cpu-p-329.210500"
"cpu-p-329.210501"
"cpu-p-329.210502"
"cpu-p-329.210503"
"cpu-p-329.210504"
"cpu-p-329.210505"
"cpu-p-329.210506"
"cpu-p-329.210507"
"cpu-p-329.210508"
"cpu-p-329.210509"
"cpu-p-329.210510"
"cpu-p-329.210511"
"cpu-p-329.210512"
"cpu-p-329.210513"
"cpu-p-329.210514"
"cpu-p-329.210515"
"cpu-p-329.210516"
"cpu-p-329.210517"
"cpu-p-329.210518"
"cpu-p-329.210519"
"cpu-p-329.210520"
"cpu-p-329.210521"
"cpu-p-329.210522"
"cpu-p-329.210523"
"cpu-p-329.210524"
"cpu-p-329.210525"
"cpu-p-329.210526"
"cpu-p-329.210527"
"cpu-p-329.210528"
"cpu-p-329.210529"
"cpu-p-329.210530"
"cpu-p-329.210531"
"cpu-p-329.210532"
"cpu-p-329.210533"
"cpu-p-329.210534"
"cpu-p-329.210535"
"cpu-p-329.210536"
"cpu-p-329.210537"
"cpu-p-329.210538"
"cpu-p-329.210539"
"cpu-p-329.210540"
"cpu-p-329.210541"
"cpu-p-330.205594"
"cpu-p-330.205595"
"cpu-p-330.205596"
"cpu-p-330.205597"
"cpu-p-330.205598"
"cpu-p-330.205599"
"cpu-p-330.205600"
"cpu-p-330.205601"
"cpu-p-330.205602"
"cpu-p-330.205603"
"cpu-p-330.205604"
"cpu-p-330.205605"
"cpu-p-330.205606"
"cpu-p-330.205607"
"cpu-p-330.205608"
"cpu-p-330.205609"
"cpu-p-330.205610"
"cpu-p-330.205611"
"cpu-p-330.205612"
"cpu-p-330.205613"
"cpu-p-330.205614"
"cpu-p-330.205615"
"cpu-p-330.205616"
"cpu-p-330.205617"
"cpu-p-330.205618"
"cpu-p-330.205619"
"cpu-p-330.205620"
"cpu-p-330.205621"
"cpu-p-330.205622"
"cpu-p-330.205623"
"cpu-p-330.205624"
"cpu-p-330.205625"
"cpu-p-330.205626"
"cpu-p-330.205627"
"cpu-p-330.205628"
"cpu-p-330.205629"
"cpu-p-330.205630"
"cpu-p-330.205631"
"cpu-p-330.205632"
"cpu-p-330.205633"
"cpu-p-330.205634"
"cpu-p-330.205635"
"cpu-p-330.205636"
"cpu-p-330.205637"
"cpu-p-330.205638"
"cpu-p-330.205639"
"cpu-p-330.205640"
"cpu-p-330.205641"
"cpu-p-330.205642"
"cpu-p-330.205643"
"cpu-p-330.205644"
"cpu-p-330.205645"
"cpu-p-330.205646"
"cpu-p-330.205647"
"cpu-p-330.205648"
"cpu-p-330.205649"
"cpu-p-331.196263"
"cpu-p-331.196264"
"cpu-p-331.196265"
"cpu-p-331.196266"
"cpu-p-331.196267"
"cpu-p-331.196268"
"cpu-p-331.196269"
"cpu-p-331.196270"
"cpu-p-331.196271"
"cpu-p-331.196272"
"cpu-p-331.196273"
"cpu-p-331.196274"
"cpu-p-331.196275"
"cpu-p-331.196276"
"cpu-p-331.196277"
"cpu-p-331.196278"
"cpu-p-331.196279"
"cpu-p-331.196280"
"cpu-p-331.196281"
"cpu-p-331.196282"
"cpu-p-331.196283"
"cpu-p-331.196284"
"cpu-p-331.196285"
"cpu-p-331.196286"
"cpu-p-331.196287"
"cpu-p-331.196288"
"cpu-p-331.196289"
"cpu-p-331.196290"
"cpu-p-331.196291"
"cpu-p-331.196292"
"cpu-p-331.196293"
"cpu-p-331.196294"
"cpu-p-331.196295"
"cpu-p-331.196296"
"cpu-p-331.196297"
"cpu-p-331.196298"
"cpu-p-331.196299"
"cpu-p-331.196300"
"cpu-p-331.196301"
"cpu-p-331.196302"
"cpu-p-331.196303"
"cpu-p-331.196304"
"cpu-p-331.196305"
"cpu-p-331.196306"
"cpu-p-331.196307"
"cpu-p-331.196308"
"cpu-p-331.196309"
"cpu-p-331.196310"
"cpu-p-331.196311"
"cpu-p-331.196312"
"cpu-p-331.196313"
"cpu-p-331.196314"
"cpu-p-331.196315"
"cpu-p-331.196316"
"cpu-p-331.196317"
"cpu-p-331.196318"
"cpu-p-332.206272"
"cpu-p-332.206273"
"cpu-p-332.206274"
"cpu-p-332.206275"
"cpu-p-332.206276"
"cpu-p-332.206277"
"cpu-p-332.206278"
"cpu-p-332.206279"
"cpu-p-332.206280"
"cpu-p-332.206281"
"cpu-p-332.206282"
"cpu-p-332.206283"
"cpu-p-332.206284"
"cpu-p-332.206285"
"cpu-p-332.206286"
"cpu-p-332.206287"
"cpu-p-332.206288"
"cpu-p-332.206289"
"cpu-p-332.206290"
"cpu-p-332.206291"
"cpu-p-332.206292"
"cpu-p-332.206293"
"cpu-p-332.206294"
"cpu-p-332.206295"
"cpu-p-332.206296"
"cpu-p-332.206297"
"cpu-p-332.206298"
"cpu-p-332.206299"
"cpu-p-332.206300"
"cpu-p-332.206301"
"cpu-p-332.206302"
"cpu-p-332.206303"
"cpu-p-332.206304"
"cpu-p-332.206305"
"cpu-p-332.206306"
"cpu-p-332.206307"
"cpu-p-332.206308"
"cpu-p-332.206309"
"cpu-p-332.206310"
"cpu-p-332.206311"
"cpu-p-332.206312"
"cpu-p-332.206313"
"cpu-p-332.206314"
"cpu-p-332.206315"
"cpu-p-332.206316"
"cpu-p-332.206317"
"cpu-p-332.206318"
"cpu-p-332.206319"
"cpu-p-332.206320"
"cpu-p-332.206321"
"cpu-p-332.206322"
"cpu-p-332.206323"
"cpu-p-332.206324"
"cpu-p-332.206325"
"cpu-p-332.206326"
"cpu-p-332.206327"
"cpu-p-333.216975"
"cpu-p-333.216976"
"cpu-p-333.216977"
"cpu-p-333.216978"
"cpu-p-333.216979"
"cpu-p-333.216980"
"cpu-p-333.216981"
"cpu-p-333.216982"
"cpu-p-333.216983"
"cpu-p-333.216984"
"cpu-p-333.216985"
"cpu-p-333.216986"
"cpu-p-333.216987"
"cpu-p-333.216988"
"cpu-p-333.216989"
"cpu-p-333.216990"
"cpu-p-333.216991"
"cpu-p-333.216992"
"cpu-p-333.216993"
"cpu-p-333.216994"
"cpu-p-333.216995"
"cpu-p-333.216996"
"cpu-p-333.216997"
"cpu-p-333.216998"
"cpu-p-333.216999"
"cpu-p-333.217000"
"cpu-p-333.217001"
"cpu-p-333.217002"
"cpu-p-333.217003"
"cpu-p-333.217004"
"cpu-p-333.217005"
"cpu-p-333.217006"
"cpu-p-333.217007"
"cpu-p-333.217008"
"cpu-p-333.217009"
"cpu-p-333.217010"
"cpu-p-333.217011"
"cpu-p-333.217012"
"cpu-p-333.217013"
"cpu-p-333.217014"
"cpu-p-333.217015"
"cpu-p-333.217016"
"cpu-p-333.217017"
"cpu-p-333.217018"
"cpu-p-333.217019"
"cpu-p-333.217020"
"cpu-p-333.217021"
"cpu-p-333.217022"
"cpu-p-333.217023"
"cpu-p-333.217024"
"cpu-p-333.217025"
"cpu-p-333.217026"
"cpu-p-333.217027"
"cpu-p-333.217028"
"cpu-p-333.217029"
"cpu-p-333.217030"
"cpu-p-334.207718"
"cpu-p-334.207719"
"cpu-p-334.207720"
"cpu-p-334.207721"
"cpu-p-334.207722"
"cpu-p-334.207723"
"cpu-p-334.207724"
"cpu-p-334.207725"
"cpu-p-334.207726"
"cpu-p-334.207727"
"cpu-p-334.207728"
"cpu-p-334.207729"
"cpu-p-334.207730"
"cpu-p-334.207731"
"cpu-p-334.207732"
"cpu-p-334.207733"
"cpu-p-334.207734"
"cpu-p-334.207735"
"cpu-p-334.207736"
"cpu-p-334.207737"
"cpu-p-334.207738"
"cpu-p-334.207739"
"cpu-p-334.207740"
"cpu-p-334.207741"
"cpu-p-334.207742"
"cpu-p-334.207743"
"cpu-p-334.207744"
"cpu-p-334.207745"
"cpu-p-334.207746"
"cpu-p-334.207747"
"cpu-p-334.207748"
"cpu-p-334.207749"
"cpu-p-334.207750"
"cpu-p-334.207751"
"cpu-p-334.207752"
"cpu-p-334.207753"
"cpu-p-334.207754"
"cpu-p-334.207755"
"cpu-p-334.207756"
"cpu-p-334.207757"
"cpu-p-334.207758"
"cpu-p-334.207759"
"cpu-p-334.207760"
"cpu-p-334.207761"
"cpu-p-334.207762"
"cpu-p-334.207763"
"cpu-p-334.207764"
"cpu-p-334.207765"
"cpu-p-334.207766"
"cpu-p-334.207767"
"cpu-p-334.207768"
"cpu-p-334.207769"
"cpu-p-334.207770"
"cpu-p-334.207771"
"cpu-p-334.207772"
"cpu-p-334.207773"
"cpu-p-335.212804"
"cpu-p-335.212805"
"cpu-p-335.212806"
"cpu-p-335.212807"
"cpu-p-335.212808"
"cpu-p-335.212809"
"cpu-p-335.212810"
"cpu-p-335.212811"
"cpu-p-335.212812"
"cpu-p-335.212813"
"cpu-p-335.212814"
"cpu-p-335.212815"
"cpu-p-335.212816"
"cpu-p-335.212817"
"cpu-p-335.212818"
"cpu-p-335.212819"
"cpu-p-335.212820"
"cpu-p-335.212821"
"cpu-p-335.212822"
"cpu-p-335.212823"
"cpu-p-335.212824"
"cpu-p-335.212825"
"cpu-p-335.212826"
"cpu-p-335.212827"
"cpu-p-335.212828"
"cpu-p-335.212829"
"cpu-p-335.212830"
"cpu-p-335.212831"
"cpu-p-335.212832"
"cpu-p-335.212833"
"cpu-p-335.212834"
"cpu-p-335.212835"
"cpu-p-335.212836"
"cpu-p-335.212837"
"cpu-p-335.212838"
"cpu-p-335.212839"
"cpu-p-335.212840"
"cpu-p-335.212841"
"cpu-p-335.212842"
"cpu-p-335.212843"
"cpu-p-335.212844"
"cpu-p-335.212845"
"cpu-p-335.212846"
"cpu-p-335.212847"
"cpu-p-335.212848"
"cpu-p-335.212849"
"cpu-p-335.212850"
"cpu-p-335.212851"
"cpu-p-335.212852"
"cpu-p-335.212853"
"cpu-p-335.212854"
"cpu-p-335.212855"
"cpu-p-335.212856"
"cpu-p-335.212857"
"cpu-p-335.212858"
"cpu-p-335.212859"
"cpu-p-336.205918"
"cpu-p-336.205919"
"cpu-p-336.205920"
"cpu-p-336.205921"
"cpu-p-336.205922"
"cpu-p-336.205923"
"cpu-p-336.205924"
"cpu-p-336.205925"
"cpu-p-336.205926"
"cpu-p-336.205927"
"cpu-p-336.205928"
"cpu-p-336.205929"
"cpu-p-336.205930"
"cpu-p-336.205931"
"cpu-p-336.205932"
"cpu-p-336.205933"
"cpu-p-336.205934"
"cpu-p-336.205935"
"cpu-p-336.205936"
"cpu-p-336.205937"
"cpu-p-336.205938"
"cpu-p-336.205939"
"cpu-p-336.205940"
"cpu-p-336.205941"
"cpu-p-336.205942"
"cpu-p-336.205943"
"cpu-p-336.205944"
"cpu-p-336.205945"
"cpu-p-336.205946"
"cpu-p-336.205947"
"cpu-p-336.205948"
"cpu-p-336.205949"
"cpu-p-336.205950"
"cpu-p-336.205951"
"cpu-p-336.205952"
"cpu-p-336.205953"
"cpu-p-336.205954"
"cpu-p-336.205955"
"cpu-p-336.205956"
"cpu-p-336.205957"
"cpu-p-336.205958"
"cpu-p-336.205959"
"cpu-p-336.205960"
"cpu-p-336.205961"
"cpu-p-336.205962"
"cpu-p-336.205963"
"cpu-p-336.205964"
"cpu-p-336.205965"
"cpu-p-336.205966"
"cpu-p-336.205967"
"cpu-p-336.205968"
"cpu-p-336.205969"
"cpu-p-336.205970"
"cpu-p-336.205971"
"cpu-p-336.205972"
"cpu-p-336.205973"
)

Pstream initialized with:
    floatTransfer      : 0
    nProcsSimpleSum    : 0
    commsType          : nonBlocking
    polling iterations : 0
sigFpe : Enabling floating point exception trapping (FOAM_SIGFPE).
fileModificationChecking : Monitoring run-time modified files using timeStampMaster (fileModificationSkew 10)
allowSystemOperations : Allowing user-supplied system call operations

// * * * * * * * * * * * * * * * * * * * * * * * * * * * * * * * * * * * * * //
Create time

Create mesh for time = 0


SIMPLE: No convergence criteria found

Reading field p

Reading field U

Reading/calculating face flux field phi

Selecting incompressible transport model Newtonian
Selecting turbulence model type RAS
Selecting RAS turbulence model kOmegaSST
Selecting patchDistMethod meshWave
RAS
{
    RASModel        kOmegaSST;
    turbulence      on;
    printCoeffs     on;
    alphaK1         0.85;
    alphaK2         1;
    alphaOmega1     0.5;
    alphaOmega2     0.856;
    gamma1          0.555556;
    gamma2          0.44;
    beta1           0.075;
    beta2           0.0828;
    betaStar        0.09;
    a1              0.31;
    b1              1;
    c1              10;
    F3              false;
}

No MRF models present

No finite volume options present

Starting time loop

Reading surface description:
    yNormal

forces forceCoeffs1:
    Not including porosity effects
forceCoeffs forceCoeffs1:
    Not including porosity effects
Time = 1

smoothSolver:  Solving for Ux, Initial residual = 1, Final residual = 0.0989852, No Iterations 14
smoothSolver:  Solving for Uy, Initial residual = 1, Final residual = 0.089886, No Iterations 13
smoothSolver:  Solving for Uz, Initial residual = 1, Final residual = 0.0838112, No Iterations 14
GAMG:  Solving for p, Initial residual = 1, Final residual = 0.00783402, No Iterations 6
time step continuity errors : sum local = 0.000555015, global = 3.33949e-06, cumulative = 3.33949e-06
smoothSolver:  Solving for omega, Initial residual = 0.0280097, Final residual = 0.00155223, No Iterations 3
bounding omega, min: -1736.62 max: 76244.5 average: 482.783
smoothSolver:  Solving for k, Initial residual = 1, Final residual = 0.0810336, No Iterations 4
ExecutionTime = 23.06 s  ClockTime = 25 s

forceCoeffs forceCoeffs1 write:
    Cm    = 12.3835
    Cd    = 26.7983
    Cl    = -1.80339
    Cl(f) = 11.4818
    Cl(r) = -13.2852

Time = 2

smoothSolver:  Solving for Ux, Initial residual = 0.107225, Final residual = 0.0103167, No Iterations 12
smoothSolver:  Solving for Uy, Initial residual = 0.519338, Final residual = 0.0452446, No Iterations 12
smoothSolver:  Solving for Uz, Initial residual = 0.393654, Final residual = 0.0329167, No Iterations 12
GAMG:  Solving for p, Initial residual = 0.232515, Final residual = 0.00204247, No Iterations 4
time step continuity errors : sum local = 0.00909078, global = 5.15951e-05, cumulative = 5.49346e-05
smoothSolver:  Solving for omega, Initial residual = 0.999999, Final residual = 0.0624759, No Iterations 3
smoothSolver:  Solving for k, Initial residual = 0.968245, Final residual = 5.19896e-08, No Iterations 1
ExecutionTime = 23.14 s  ClockTime = 25 s

forceCoeffs forceCoeffs1 write:
    Cm    = 4.78529
    Cd    = 10.9581
    Cl    = -0.385235
    Cl(f) = 4.59267
    Cl(r) = -4.97791

Time = 3

smoothSolver:  Solving for Ux, Initial residual = 0.13369, Final residual = 0.0118461, No Iterations 5
smoothSolver:  Solving for Uy, Initial residual = 0.562628, Final residual = 0.0466017, No Iterations 6
smoothSolver:  Solving for Uz, Initial residual = 0.628129, Final residual = 0.0534509, No Iterations 5
GAMG:  Solving for p, Initial residual = 0.141478, Final residual = 0.000689734, No Iterations 5
time step continuity errors : sum local = 0.00249838, global = 2.55877e-05, cumulative = 8.05223e-05
smoothSolver:  Solving for omega, Initial residual = 0.538467, Final residual = 3.53389e-13, No Iterations 1
bounding omega, min: -1.12903e+08 max: 6.86901e+15 average: 1.79211e+10
smoothSolver:  Solving for k, Initial residual = 0.116056, Final residual = 6.44118e-08, No Iterations 1
ExecutionTime = 23.2 s  ClockTime = 25 s

forceCoeffs forceCoeffs1 write:
    Cm    = 3.0117
    Cd    = 7.01583
    Cl    = -1.4518
    Cl(f) = 2.2858
    Cl(r) = -3.7376

Time = 4

smoothSolver:  Solving for Ux, Initial residual = 0.0610621, Final residual = 0.00518451, No Iterations 6
smoothSolver:  Solving for Uy, Initial residual = 0.461832, Final residual = 0.040184, No Iterations 6
smoothSolver:  Solving for Uz, Initial residual = 0.453721, Final residual = 0.0366092, No Iterations 6
GAMG:  Solving for p, Initial residual = 0.076953, Final residual = 0.000678431, No Iterations 4
time step continuity errors : sum local = 0.00296776, global = 2.44964e-05, cumulative = 0.000105019
smoothSolver:  Solving for omega, Initial residual = 0.538467, Final residual = 1.4043e-12, No Iterations 1
bounding omega, min: -2.08357e+06 max: 2.0607e+15 average: 5.37657e+09
smoothSolver:  Solving for k, Initial residual = 0.0273308, Final residual = 1.73226e-07, No Iterations 1
ExecutionTime = 23.26 s  ClockTime = 25 s

forceCoeffs forceCoeffs1 write:
    Cm    = 1.39027
    Cd    = 3.5845
    Cl    = -0.801228
    Cl(f) = 0.989659
    Cl(r) = -1.79089

Time = 5

smoothSolver:  Solving for Ux, Initial residual = 0.0261441, Final residual = 0.00255694, No Iterations 7
smoothSolver:  Solving for Uy, Initial residual = 0.360928, Final residual = 0.0307957, No Iterations 7
smoothSolver:  Solving for Uz, Initial residual = 0.31342, Final residual = 0.0257897, No Iterations 7
GAMG:  Solving for p, Initial residual = 0.0604903, Final residual = 0.000459686, No Iterations 4
time step continuity errors : sum local = 0.002196, global = 2.08526e-05, cumulative = 0.000125871
smoothSolver:  Solving for omega, Initial residual = 0.538467, Final residual = 6.5743e-12, No Iterations 1
bounding omega, min: -80618.9 max: 6.18211e+14 average: 1.61298e+09
smoothSolver:  Solving for k, Initial residual = 0.00705538, Final residual = 5.14012e-07, No Iterations 1
ExecutionTime = 23.3 s  ClockTime = 25 s

forceCoeffs forceCoeffs1 write:
    Cm    = 0.732197
    Cd    = 1.93144
    Cl    = -0.378118
    Cl(f) = 0.543138
    Cl(r) = -0.921256

Time = 6

smoothSolver:  Solving for Ux, Initial residual = 0.0184175, Final residual = 0.00145752, No Iterations 8
smoothSolver:  Solving for Uy, Initial residual = 0.31121, Final residual = 0.0298139, No Iterations 7
smoothSolver:  Solving for Uz, Initial residual = 0.260179, Final residual = 0.0222924, No Iterations 7
GAMG:  Solving for p, Initial residual = 0.0522165, Final residual = 0.000375564, No Iterations 4
time step continuity errors : sum local = 0.00175805, global = 1.37472e-05, cumulative = 0.000139619
smoothSolver:  Solving for omega, Initial residual = 0.538467, Final residual = 3.31875e-11, No Iterations 1
bounding omega, min: -68318.4 max: 1.85463e+14 average: 4.83901e+08
smoothSolver:  Solving for k, Initial residual = 0.00189115, Final residual = 1.51789e-06, No Iterations 1
ExecutionTime = 23.35 s  ClockTime = 25 s

forceCoeffs forceCoeffs1 write:
    Cm    = 0.477693
    Cd    = 1.21619
    Cl    = -0.146639
    Cl(f) = 0.404374
    Cl(r) = -0.551012

Time = 7

smoothSolver:  Solving for Ux, Initial residual = 0.0140788, Final residual = 0.00118424, No Iterations 8
smoothSolver:  Solving for Uy, Initial residual = 0.260778, Final residual = 0.0212228, No Iterations 8
smoothSolver:  Solving for Uz, Initial residual = 0.229866, Final residual = 0.0216545, No Iterations 7
GAMG:  Solving for p, Initial residual = 0.0478844, Final residual = 0.000312003, No Iterations 4
time step continuity errors : sum local = 0.00141161, global = 8.90719e-06, cumulative = 0.000148526
smoothSolver:  Solving for omega, Initial residual = 0.538467, Final residual = 1.65925e-10, No Iterations 1
bounding omega, min: -15188.3 max: 5.5639e+13 average: 1.45172e+08
smoothSolver:  Solving for k, Initial residual = 0.000531139, Final residual = 4.67086e-06, No Iterations 1
ExecutionTime = 23.39 s  ClockTime = 26 s

forceCoeffs forceCoeffs1 write:
    Cm    = 0.360897
    Cd    = 0.873357
    Cl    = -0.0658919
    Cl(f) = 0.327951
    Cl(r) = -0.393843

Time = 8

smoothSolver:  Solving for Ux, Initial residual = 0.0115564, Final residual = 0.00102335, No Iterations 8
smoothSolver:  Solving for Uy, Initial residual = 0.228701, Final residual = 0.0190672, No Iterations 8
smoothSolver:  Solving for Uz, Initial residual = 0.211268, Final residual = 0.0210831, No Iterations 7
GAMG:  Solving for p, Initial residual = 0.0447231, Final residual = 0.000278842, No Iterations 4
time step continuity errors : sum local = 0.00122191, global = -2.26576e-06, cumulative = 0.00014626
smoothSolver:  Solving for omega, Initial residual = 0.538467, Final residual = 5.90073e-10, No Iterations 1
bounding omega, min: -21056.5 max: 1.66917e+13 average: 4.35528e+07
smoothSolver:  Solving for k, Initial residual = 0.000179427, Final residual = 1.47482e-05, No Iterations 1
ExecutionTime = 23.44 s  ClockTime = 26 s

forceCoeffs forceCoeffs1 write:
    Cm    = 0.307508
    Cd    = 0.706167
    Cl    = -0.0453124
    Cl(f) = 0.284851
    Cl(r) = -0.330164

Time = 9

smoothSolver:  Solving for Ux, Initial residual = 0.0099658, Final residual = 0.000920361, No Iterations 8
smoothSolver:  Solving for Uy, Initial residual = 0.1982, Final residual = 0.0170025, No Iterations 8
smoothSolver:  Solving for Uz, Initial residual = 0.200722, Final residual = 0.0166465, No Iterations 8
GAMG:  Solving for p, Initial residual = 0.0425175, Final residual = 0.000268413, No Iterations 4
time step continuity errors : sum local = 0.00114095, global = -7.48053e-06, cumulative = 0.000138779
smoothSolver:  Solving for omega, Initial residual = 0.538467, Final residual = 1.33917e-09, No Iterations 1
bounding omega, min: -4962.2 max: 5.00751e+12 average: 1.3067e+07
smoothSolver:  Solving for k, Initial residual = 0.000146633, Final residual = 1.1145e-05, No Iterations 3
ExecutionTime = 23.5 s  ClockTime = 26 s

forceCoeffs forceCoeffs1 write:
    Cm    = 0.272008
    Cd    = 0.604308
    Cl    = -0.068855
    Cl(f) = 0.23758
    Cl(r) = -0.306435

Time = 10

smoothSolver:  Solving for Ux, Initial residual = 0.00881985, Final residual = 0.000846222, No Iterations 8
smoothSolver:  Solving for Uy, Initial residual = 0.177906, Final residual = 0.015841, No Iterations 8
smoothSolver:  Solving for Uz, Initial residual = 0.1911, Final residual = 0.016407, No Iterations 8
GAMG:  Solving for p, Initial residual = 0.040844, Final residual = 0.000261742, No Iterations 4
time step continuity errors : sum local = 0.0010804, global = -8.8485e-06, cumulative = 0.000129931
smoothSolver:  Solving for omega, Initial residual = 0.538467, Final residual = 1.81807e-09, No Iterations 1
bounding omega, min: -16918.6 max: 1.50225e+12 average: 3.92113e+06
smoothSolver:  Solving for k, Initial residual = 0.000332898, Final residual = 1.70694e-05, No Iterations 4
ExecutionTime = 23.57 s  ClockTime = 26 s

forceCoeffs forceCoeffs1 write:
    Cm    = 0.247407
    Cd    = 0.54851
    Cl    = -0.0734918
    Cl(f) = 0.210661
    Cl(r) = -0.284152

Time = 11

smoothSolver:  Solving for Ux, Initial residual = 0.00791619, Final residual = 0.000790667, No Iterations 8
smoothSolver:  Solving for Uy, Initial residual = 0.16367, Final residual = 0.0153382, No Iterations 8
smoothSolver:  Solving for Uz, Initial residual = 0.182443, Final residual = 0.016276, No Iterations 8
GAMG:  Solving for p, Initial residual = 0.0395718, Final residual = 0.000244995, No Iterations 4
time step continuity errors : sum local = 0.000977516, global = -9.04768e-06, cumulative = 0.000120883
smoothSolver:  Solving for omega, Initial residual = 0.538467, Final residual = 5.32119e-09, No Iterations 1
bounding omega, min: -24667.3 max: 4.50676e+11 average: 1.17731e+06
smoothSolver:  Solving for k, Initial residual = 0.000918972, Final residual = 4.75713e-05, No Iterations 4
bounding k, min: -1.8287e-06 max: 156.303 average: 0.539659
ExecutionTime = 23.63 s  ClockTime = 26 s

forceCoeffs forceCoeffs1 write:
    Cm    = 0.233423
    Cd    = 0.519082
    Cl    = -0.0757768
    Cl(f) = 0.195535
    Cl(r) = -0.271312

Time = 12

smoothSolver:  Solving for Ux, Initial residual = 0.00733142, Final residual = 0.000603072, No Iterations 9
smoothSolver:  Solving for Uy, Initial residual = 0.156256, Final residual = 0.0149571, No Iterations 8
smoothSolver:  Solving for Uz, Initial residual = 0.17187, Final residual = 0.0159707, No Iterations 8
GAMG:  Solving for p, Initial residual = 0.0387075, Final residual = 0.000240806, No Iterations 4
time step continuity errors : sum local = 0.000920593, global = -9.59434e-06, cumulative = 0.000111289
smoothSolver:  Solving for omega, Initial residual = 0.538465, Final residual = 2.02662e-08, No Iterations 1
bounding omega, min: -1716.24 max: 1.35203e+11 average: 354113
smoothSolver:  Solving for k, Initial residual = 0.0021416, Final residual = 0.000110296, No Iterations 4
bounding k, min: -8.17455e-06 max: 269.549 average: 0.563205
ExecutionTime = 23.7 s  ClockTime = 26 s

forceCoeffs forceCoeffs1 write:
    Cm    = 0.221636
    Cd    = 0.491479
    Cl    = -0.0567002
    Cl(f) = 0.193286
    Cl(r) = -0.249987

Time = 13

smoothSolver:  Solving for Ux, Initial residual = 0.00682771, Final residual = 0.000581328, No Iterations 9
smoothSolver:  Solving for Uy, Initial residual = 0.147794, Final residual = 0.0147473, No Iterations 8
smoothSolver:  Solving for Uz, Initial residual = 0.161162, Final residual = 0.0156029, No Iterations 8
GAMG:  Solving for p, Initial residual = 0.0382354, Final residual = 0.000249674, No Iterations 4
time step continuity errors : sum local = 0.000910641, global = -1.01828e-05, cumulative = 0.000101106
smoothSolver:  Solving for omega, Initial residual = 0.538461, Final residual = 6.32137e-08, No Iterations 1
bounding omega, min: -2139.59 max: 4.05608e+10 average: 107114
smoothSolver:  Solving for k, Initial residual = 0.00366449, Final residual = 0.000188374, No Iterations 4
bounding k, min: -1.68106e-06 max: 153.499 average: 0.582341
ExecutionTime = 23.77 s  ClockTime = 26 s

forceCoeffs forceCoeffs1 write:
    Cm    = 0.210264
    Cd    = 0.47072
    Cl    = -0.0368642
    Cl(f) = 0.191832
    Cl(r) = -0.228696

Time = 14

smoothSolver:  Solving for Ux, Initial residual = 0.0064674, Final residual = 0.000567909, No Iterations 9
smoothSolver:  Solving for Uy, Initial residual = 0.139338, Final residual = 0.0114067, No Iterations 9
smoothSolver:  Solving for Uz, Initial residual = 0.150934, Final residual = 0.0120492, No Iterations 9
GAMG:  Solving for p, Initial residual = 0.0379647, Final residual = 0.000255063, No Iterations 4
time step continuity errors : sum local = 0.00088817, global = -9.27581e-06, cumulative = 9.18303e-05
smoothSolver:  Solving for omega, Initial residual = 0.538445, Final residual = 1.83747e-07, No Iterations 1
bounding omega, min: -2001.24 max: 1.21682e+10 average: 32983
smoothSolver:  Solving for k, Initial residual = 0.00464014, Final residual = 0.000241318, No Iterations 4
ExecutionTime = 23.85 s  ClockTime = 26 s

forceCoeffs forceCoeffs1 write:
    Cm    = 0.201347
    Cd    = 0.460723
    Cl    = -0.0170117
    Cl(f) = 0.192841
    Cl(r) = -0.209853

Time = 15

smoothSolver:  Solving for Ux, Initial residual = 0.00615634, Final residual = 0.000561595, No Iterations 9
smoothSolver:  Solving for Uy, Initial residual = 0.129588, Final residual = 0.011021, No Iterations 9
smoothSolver:  Solving for Uz, Initial residual = 0.141083, Final residual = 0.01171, No Iterations 9
GAMG:  Solving for p, Initial residual = 0.0376272, Final residual = 0.000250174, No Iterations 4
time step continuity errors : sum local = 0.000831213, global = -7.75717e-06, cumulative = 8.40731e-05
smoothSolver:  Solving for omega, Initial residual = 0.53839, Final residual = 5.51338e-07, No Iterations 1
smoothSolver:  Solving for k, Initial residual = 0.00504369, Final residual = 0.000269404, No Iterations 4
ExecutionTime = 23.94 s  ClockTime = 26 s

forceCoeffs forceCoeffs1 write:
    Cm    = 0.191907
    Cd    = 0.452018
    Cl    = 0.00195801
    Cl(f) = 0.192886
    Cl(r) = -0.190928

Time = 16

smoothSolver:  Solving for Ux, Initial residual = 0.00596054, Final residual = 0.000556819, No Iterations 9
smoothSolver:  Solving for Uy, Initial residual = 0.120603, Final residual = 0.0105823, No Iterations 9
smoothSolver:  Solving for Uz, Initial residual = 0.133521, Final residual = 0.0114921, No Iterations 9
GAMG:  Solving for p, Initial residual = 0.0371722, Final residual = 0.000249254, No Iterations 4
time step continuity errors : sum local = 0.000790009, global = -6.77494e-06, cumulative = 7.72982e-05
smoothSolver:  Solving for omega, Initial residual = 0.53819, Final residual = 1.62993e-06, No Iterations 1
bounding omega, min: -8237.19 max: 1.09514e+09 average: 4016.97
smoothSolver:  Solving for k, Initial residual = 0.00515517, Final residual = 0.00028302, No Iterations 4
bounding k, min: -7.66869e-08 max: 293.189 average: 0.62587
ExecutionTime = 24.03 s  ClockTime = 26 s

forceCoeffs forceCoeffs1 write:
    Cm    = 0.183578
    Cd    = 0.444816
    Cl    = 0.0188153
    Cl(f) = 0.192986
    Cl(r) = -0.17417

Time = 17

smoothSolver:  Solving for Ux, Initial residual = 0.00567176, Final residual = 0.000552759, No Iterations 9
smoothSolver:  Solving for Uy, Initial residual = 0.112402, Final residual = 0.0102424, No Iterations 9
smoothSolver:  Solving for Uz, Initial residual = 0.127392, Final residual = 0.0114557, No Iterations 9
GAMG:  Solving for p, Initial residual = 0.0367877, Final residual = 0.000254655, No Iterations 4
time step continuity errors : sum local = 0.000771474, global = -6.04157e-06, cumulative = 7.12566e-05
smoothSolver:  Solving for omega, Initial residual = 0.537326, Final residual = 4.62073e-06, No Iterations 1
smoothSolver:  Solving for k, Initial residual = 0.00526426, Final residual = 0.000296181, No Iterations 4
bounding k, min: -1.07867e-08 max: 228.93 average: 0.635664
ExecutionTime = 24.13 s  ClockTime = 26 s

forceCoeffs forceCoeffs1 write:
    Cm    = 0.175198
    Cd    = 0.438008
    Cl    = 0.0277605
    Cl(f) = 0.189078
    Cl(r) = -0.161318

Time = 18

smoothSolver:  Solving for Ux, Initial residual = 0.00547542, Final residual = 0.000443438, No Iterations 10
smoothSolver:  Solving for Uy, Initial residual = 0.105428, Final residual = 0.00994051, No Iterations 9
smoothSolver:  Solving for Uz, Initial residual = 0.123378, Final residual = 0.0115237, No Iterations 9
GAMG:  Solving for p, Initial residual = 0.0364863, Final residual = 0.000252724, No Iterations 4
time step continuity errors : sum local = 0.000733376, global = -5.05383e-06, cumulative = 6.62028e-05
smoothSolver:  Solving for omega, Initial residual = 0.532334, Final residual = 1.65668e-05, No Iterations 1
bounding omega, min: -1758.03 max: 9.85629e+07 average: 1359.66
smoothSolver:  Solving for k, Initial residual = 0.00527382, Final residual = 0.00031149, No Iterations 4
bounding k, min: -2.53253e-11 max: 170.366 average: 0.644696
ExecutionTime = 24.22 s  ClockTime = 26 s

forceCoeffs forceCoeffs1 write:
    Cm    = 0.169412
    Cd    = 0.431796
    Cl    = 0.024708
    Cl(f) = 0.181766
    Cl(r) = -0.157058

Time = 19

smoothSolver:  Solving for Ux, Initial residual = 0.00527762, Final residual = 0.000439061, No Iterations 10
smoothSolver:  Solving for Uy, Initial residual = 0.10041, Final residual = 0.00969999, No Iterations 9
smoothSolver:  Solving for Uz, Initial residual = 0.119951, Final residual = 0.0116045, No Iterations 9
GAMG:  Solving for p, Initial residual = 0.0361102, Final residual = 0.000254668, No Iterations 4
time step continuity errors : sum local = 0.000707242, global = -4.27255e-06, cumulative = 6.19302e-05
[...]

Time = 80

smoothSolver:  Solving for Ux, Initial residual = 0.0010314, Final residual = 8.92997e-05, No Iterations 11
smoothSolver:  Solving for Uy, Initial residual = 0.0236367, Final residual = 0.00234551, No Iterations 10
smoothSolver:  Solving for Uz, Initial residual = 0.0216224, Final residual = 0.00212645, No Iterations 10
GAMG:  Solving for p, Initial residual = 0.0107055, Final residual = 8.53732e-05, No Iterations 4
time step continuity errors : sum local = 0.000126895, global = -7.02281e-07, cumulative = -2.16287e-05
smoothSolver:  Solving for omega, Initial residual = 0.000150297, Final residual = 8.36129e-06, No Iterations 4
smoothSolver:  Solving for k, Initial residual = 0.00208783, Final residual = 0.000155837, No Iterations 4
ExecutionTime = 27.73 s  ClockTime = 30 s

forceCoeffs forceCoeffs1 write:
    Cm    = 0.153692
    Cd    = 0.402417
    Cl    = 0.083495
    Cl(f) = 0.19544
    Cl(r) = -0.111945

Time = 81

smoothSolver:  Solving for Ux, Initial residual = 0.00102611, Final residual = 8.86492e-05, No Iterations 11
smoothSolver:  Solving for Uy, Initial residual = 0.0236506, Final residual = 0.00232879, No Iterations 10
smoothSolver:  Solving for Uz, Initial residual = 0.0215402, Final residual = 0.00211962, No Iterations 10
GAMG:  Solving for p, Initial residual = 0.0106172, Final residual = 8.60705e-05, No Iterations 4
time step continuity errors : sum local = 0.000127909, global = -2.838e-07, cumulative = -2.19125e-05
smoothSolver:  Solving for omega, Initial residual = 0.000148897, Final residual = 8.24637e-06, No Iterations 4
bounding omega, min: -121.749 max: 87204.6 average: 931.747
smoothSolver:  Solving for k, Initial residual = 0.00205302, Final residual = 0.000153435, No Iterations 4
ExecutionTime = 27.77 s  ClockTime = 30 s

forceCoeffs forceCoeffs1 write:
    Cm    = 0.153811
    Cd    = 0.402849
    Cl    = 0.0840774
    Cl(f) = 0.19585
    Cl(r) = -0.111772

Time = 82

smoothSolver:  Solving for Ux, Initial residual = 0.00101821, Final residual = 8.79062e-05, No Iterations 11
smoothSolver:  Solving for Uy, Initial residual = 0.0235286, Final residual = 0.00230106, No Iterations 10
smoothSolver:  Solving for Uz, Initial residual = 0.021403, Final residual = 0.00210778, No Iterations 10
GAMG:  Solving for p, Initial residual = 0.010499, Final residual = 8.5734e-05, No Iterations 4
time step continuity errors : sum local = 0.000127449, global = 1.37623e-07, cumulative = -2.17749e-05
smoothSolver:  Solving for omega, Initial residual = 0.000147237, Final residual = 8.07657e-06, No Iterations 4
smoothSolver:  Solving for k, Initial residual = 0.0020218, Final residual = 0.00015037, No Iterations 4
ExecutionTime = 27.81 s  ClockTime = 30 s

forceCoeffs forceCoeffs1 write:
    Cm    = 0.153894
    Cd    = 0.403361
    Cl    = 0.0843
    Cl(f) = 0.196044
    Cl(r) = -0.111744

Time = 83

smoothSolver:  Solving for Ux, Initial residual = 0.00100616, Final residual = 8.69746e-05, No Iterations 11
smoothSolver:  Solving for Uy, Initial residual = 0.0232742, Final residual = 0.00227133, No Iterations 10
smoothSolver:  Solving for Uz, Initial residual = 0.0211595, Final residual = 0.00208806, No Iterations 10
GAMG:  Solving for p, Initial residual = 0.0103507, Final residual = 8.49625e-05, No Iterations 4
time step continuity errors : sum local = 0.000126404, global = 6.01855e-07, cumulative = -2.1173e-05
smoothSolver:  Solving for omega, Initial residual = 0.000145617, Final residual = 7.95772e-06, No Iterations 4
bounding omega, min: -32.1337 max: 92046.8 average: 931.886
smoothSolver:  Solving for k, Initial residual = 0.00198742, Final residual = 0.000147412, No Iterations 4
ExecutionTime = 27.86 s  ClockTime = 30 s

forceCoeffs forceCoeffs1 write:
    Cm    = 0.153859
    Cd    = 0.403808
    Cl    = 0.0841451
    Cl(f) = 0.195931
    Cl(r) = -0.111786

Time = 84

smoothSolver:  Solving for Ux, Initial residual = 0.00099207, Final residual = 8.60668e-05, No Iterations 11
smoothSolver:  Solving for Uy, Initial residual = 0.0229372, Final residual = 0.00223633, No Iterations 10
smoothSolver:  Solving for Uz, Initial residual = 0.0208073, Final residual = 0.00205286, No Iterations 10
GAMG:  Solving for p, Initial residual = 0.0102247, Final residual = 8.22063e-05, No Iterations 4
time step continuity errors : sum local = 0.000122468, global = 7.09496e-07, cumulative = -2.04635e-05
smoothSolver:  Solving for omega, Initial residual = 0.000144264, Final residual = 7.88717e-06, No Iterations 4
bounding omega, min: -26.6281 max: 81827 average: 930.917
smoothSolver:  Solving for k, Initial residual = 0.00195603, Final residual = 0.000144779, No Iterations 4
ExecutionTime = 27.9 s  ClockTime = 30 s

forceCoeffs forceCoeffs1 write:
    Cm    = 0.153739
    Cd    = 0.404138
    Cl    = 0.0836433
    Cl(f) = 0.195561
    Cl(r) = -0.111917

Time = 85

smoothSolver:  Solving for Ux, Initial residual = 0.000979527, Final residual = 8.51333e-05, No Iterations 11
smoothSolver:  Solving for Uy, Initial residual = 0.0226144, Final residual = 0.00220778, No Iterations 10
smoothSolver:  Solving for Uz, Initial residual = 0.0204147, Final residual = 0.00200464, No Iterations 10
GAMG:  Solving for p, Initial residual = 0.0101061, Final residual = 7.74313e-05, No Iterations 4
time step continuity errors : sum local = 0.000115538, global = 6.82926e-07, cumulative = -1.97806e-05
smoothSolver:  Solving for omega, Initial residual = 0.000142655, Final residual = 7.83021e-06, No Iterations 4
bounding omega, min: -12.8836 max: 86808.7 average: 930.891
smoothSolver:  Solving for k, Initial residual = 0.001923, Final residual = 0.000142307, No Iterations 4
ExecutionTime = 27.99 s  ClockTime = 30 s

forceCoeffs forceCoeffs1 write:
    Cm    = 0.153601
    Cd    = 0.404382
    Cl    = 0.0827688
    Cl(f) = 0.194985
    Cl(r) = -0.112217

Time = 86

smoothSolver:  Solving for Ux, Initial residual = 0.000971641, Final residual = 8.47071e-05, No Iterations 11
smoothSolver:  Solving for Uy, Initial residual = 0.0224708, Final residual = 0.00220813, No Iterations 10
smoothSolver:  Solving for Uz, Initial residual = 0.0200546, Final residual = 0.00195479, No Iterations 10
GAMG:  Solving for p, Initial residual = 0.0100225, Final residual = 7.37893e-05, No Iterations 4
time step continuity errors : sum local = 0.000110286, global = 5.49926e-07, cumulative = -1.92307e-05
smoothSolver:  Solving for omega, Initial residual = 0.000142051, Final residual = 7.77619e-06, No Iterations 4
smoothSolver:  Solving for k, Initial residual = 0.00189523, Final residual = 0.000140104, No Iterations 4
ExecutionTime = 28.03 s  ClockTime = 30 s

forceCoeffs forceCoeffs1 write:
    Cm    = 0.153569
    Cd    = 0.404589
    Cl    = 0.0813409
    Cl(f) = 0.19424
    Cl(r) = -0.112899

Time = 87

smoothSolver:  Solving for Ux, Initial residual = 0.000968394, Final residual = 8.51257e-05, No Iterations 11
smoothSolver:  Solving for Uy, Initial residual = 0.0225752, Final residual = 0.00224281, No Iterations 10
smoothSolver:  Solving for Uz, Initial residual = 0.0197924, Final residual = 0.00192276, No Iterations 10
GAMG:  Solving for p, Initial residual = 0.00995817, Final residual = 7.29461e-05, No Iterations 4
time step continuity errors : sum local = 0.000109192, global = 5.14914e-07, cumulative = -1.87157e-05
smoothSolver:  Solving for omega, Initial residual = 0.000141844, Final residual = 7.70476e-06, No Iterations 4
smoothSolver:  Solving for k, Initial residual = 0.00187899, Final residual = 0.00013854, No Iterations 4
ExecutionTime = 28.08 s  ClockTime = 30 s

forceCoeffs forceCoeffs1 write:
    Cm    = 0.153677
    Cd    = 0.404792
    Cl    = 0.0794092
    Cl(f) = 0.193382
    Cl(r) = -0.113972

Time = 88

smoothSolver:  Solving for Ux, Initial residual = 0.000968374, Final residual = 8.54245e-05, No Iterations 11
smoothSolver:  Solving for Uy, Initial residual = 0.0228592, Final residual = 0.00185675, No Iterations 11
smoothSolver:  Solving for Uz, Initial residual = 0.0196386, Final residual = 0.00190733, No Iterations 10
GAMG:  Solving for p, Initial residual = 0.00989857, Final residual = 7.35007e-05, No Iterations 4
time step continuity errors : sum local = 0.000110196, global = 6.54315e-07, cumulative = -1.80614e-05
smoothSolver:  Solving for omega, Initial residual = 0.000141451, Final residual = 7.67728e-06, No Iterations 4
smoothSolver:  Solving for k, Initial residual = 0.00186986, Final residual = 0.000137633, No Iterations 4
ExecutionTime = 28.13 s  ClockTime = 30 s

forceCoeffs forceCoeffs1 write:
    Cm    = 0.154058
    Cd    = 0.405183
    Cl    = 0.0771587
    Cl(f) = 0.192638
    Cl(r) = -0.115479

Time = 89

smoothSolver:  Solving for Ux, Initial residual = 0.000970136, Final residual = 8.5391e-05, No Iterations 11
smoothSolver:  Solving for Uy, Initial residual = 0.0230094, Final residual = 0.00187182, No Iterations 11
smoothSolver:  Solving for Uz, Initial residual = 0.0195828, Final residual = 0.00190362, No Iterations 10
GAMG:  Solving for p, Initial residual = 0.00983569, Final residual = 7.40976e-05, No Iterations 4
time step continuity errors : sum local = 0.000111273, global = 8.13584e-07, cumulative = -1.72478e-05
smoothSolver:  Solving for omega, Initial residual = 0.000141038, Final residual = 7.63355e-06, No Iterations 4
smoothSolver:  Solving for k, Initial residual = 0.00186727, Final residual = 0.000137008, No Iterations 4
ExecutionTime = 28.18 s  ClockTime = 30 s

forceCoeffs forceCoeffs1 write:
    Cm    = 0.154718
    Cd    = 0.405928
    Cl    = 0.0749455
    Cl(f) = 0.192191
    Cl(r) = -0.117245

Time = 90

smoothSolver:  Solving for Ux, Initial residual = 0.00097078, Final residual = 8.52883e-05, No Iterations 11
smoothSolver:  Solving for Uy, Initial residual = 0.0231786, Final residual = 0.00188723, No Iterations 11
smoothSolver:  Solving for Uz, Initial residual = 0.0195605, Final residual = 0.00190874, No Iterations 10
GAMG:  Solving for p, Initial residual = 0.0097612, Final residual = 7.42441e-05, No Iterations 4
time step continuity errors : sum local = 0.000111663, global = 8.85192e-07, cumulative = -1.63626e-05
smoothSolver:  Solving for omega, Initial residual = 0.000140637, Final residual = 7.56396e-06, No Iterations 4
smoothSolver:  Solving for k, Initial residual = 0.00186704, Final residual = 0.000136616, No Iterations 4
ExecutionTime = 28.22 s  ClockTime = 30 s

forceCoeffs forceCoeffs1 write:
    Cm    = 0.155667
    Cd    = 0.407115
    Cl    = 0.0731327
    Cl(f) = 0.192233
    Cl(r) = -0.119101

Time = 91

smoothSolver:  Solving for Ux, Initial residual = 0.000970802, Final residual = 8.54462e-05, No Iterations 11
smoothSolver:  Solving for Uy, Initial residual = 0.0232599, Final residual = 0.00190333, No Iterations 11
smoothSolver:  Solving for Uz, Initial residual = 0.0195063, Final residual = 0.001913, No Iterations 10
GAMG:  Solving for p, Initial residual = 0.00968991, Final residual = 7.43984e-05, No Iterations 4
time step continuity errors : sum local = 0.000112023, global = 8.45039e-07, cumulative = -1.55176e-05
smoothSolver:  Solving for omega, Initial residual = 0.000140105, Final residual = 7.51131e-06, No Iterations 4
smoothSolver:  Solving for k, Initial residual = 0.0018692, Final residual = 0.000136543, No Iterations 4
ExecutionTime = 28.27 s  ClockTime = 30 s

forceCoeffs forceCoeffs1 write:
    Cm    = 0.156701
    Cd    = 0.40851
    Cl    = 0.0720015
    Cl(f) = 0.192701
    Cl(r) = -0.1207

Time = 92

smoothSolver:  Solving for Ux, Initial residual = 0.000966829, Final residual = 8.61905e-05, No Iterations 11
smoothSolver:  Solving for Uy, Initial residual = 0.0231512, Final residual = 0.00191084, No Iterations 11
smoothSolver:  Solving for Uz, Initial residual = 0.0193615, Final residual = 0.0019096, No Iterations 10
GAMG:  Solving for p, Initial residual = 0.00961544, Final residual = 7.50566e-05, No Iterations 4
time step continuity errors : sum local = 0.000113103, global = 6.75544e-07, cumulative = -1.48421e-05
smoothSolver:  Solving for omega, Initial residual = 0.000139025, Final residual = 7.49744e-06, No Iterations 4
smoothSolver:  Solving for k, Initial residual = 0.00186732, Final residual = 0.000136475, No Iterations 4
ExecutionTime = 28.31 s  ClockTime = 30 s

forceCoeffs forceCoeffs1 write:
    Cm    = 0.157548
    Cd    = 0.40972
    Cl    = 0.0717261
    Cl(f) = 0.193411
    Cl(r) = -0.121685

Time = 93

smoothSolver:  Solving for Ux, Initial residual = 0.000962009, Final residual = 8.66885e-05, No Iterations 11
smoothSolver:  Solving for Uy, Initial residual = 0.0228804, Final residual = 0.00189875, No Iterations 11
smoothSolver:  Solving for Uz, Initial residual = 0.0191626, Final residual = 0.00189681, No Iterations 10
GAMG:  Solving for p, Initial residual = 0.00951925, Final residual = 7.62358e-05, No Iterations 4
time step continuity errors : sum local = 0.000114892, global = 4.19009e-07, cumulative = -1.44231e-05
smoothSolver:  Solving for omega, Initial residual = 0.000138177, Final residual = 7.4662e-06, No Iterations 4
smoothSolver:  Solving for k, Initial residual = 0.0018611, Final residual = 0.000136251, No Iterations 4
ExecutionTime = 28.35 s  ClockTime = 31 s

forceCoeffs forceCoeffs1 write:
    Cm    = 0.158054
    Cd    = 0.410499
    Cl    = 0.0721678
    Cl(f) = 0.194138
    Cl(r) = -0.121971

Time = 94

smoothSolver:  Solving for Ux, Initial residual = 0.000958988, Final residual = 8.67033e-05, No Iterations 11
smoothSolver:  Solving for Uy, Initial residual = 0.0225842, Final residual = 0.00188028, No Iterations 11
smoothSolver:  Solving for Uz, Initial residual = 0.0189665, Final residual = 0.00187838, No Iterations 10
GAMG:  Solving for p, Initial residual = 0.00939606, Final residual = 7.70778e-05, No Iterations 4
time step continuity errors : sum local = 0.000116118, global = 2.34669e-08, cumulative = -1.43996e-05
smoothSolver:  Solving for omega, Initial residual = 0.000137075, Final residual = 7.42073e-06, No Iterations 4
smoothSolver:  Solving for k, Initial residual = 0.00185264, Final residual = 0.000135974, No Iterations 4
ExecutionTime = 28.39 s  ClockTime = 31 s

forceCoeffs forceCoeffs1 write:
    Cm    = 0.15832
    Cd    = 0.41091
    Cl    = 0.0729409
    Cl(f) = 0.194791
    Cl(r) = -0.12185

Time = 95

smoothSolver:  Solving for Ux, Initial residual = 0.000959556, Final residual = 8.68732e-05, No Iterations 11
smoothSolver:  Solving for Uy, Initial residual = 0.0223846, Final residual = 0.00186938, No Iterations 11
smoothSolver:  Solving for Uz, Initial residual = 0.018821, Final residual = 0.00187285, No Iterations 10
GAMG:  Solving for p, Initial residual = 0.00929022, Final residual = 7.68412e-05, No Iterations 4
time step continuity errors : sum local = 0.000115693, global = -3.33966e-07, cumulative = -1.47336e-05
smoothSolver:  Solving for omega, Initial residual = 0.000136082, Final residual = 7.35558e-06, No Iterations 4
smoothSolver:  Solving for k, Initial residual = 0.00184596, Final residual = 0.000135355, No Iterations 4
ExecutionTime = 28.43 s  ClockTime = 31 s

forceCoeffs forceCoeffs1 write:
    Cm    = 0.15842
    Cd    = 0.411062
    Cl    = 0.0737666
    Cl(f) = 0.195304
    Cl(r) = -0.121537

Time = 96

smoothSolver:  Solving for Ux, Initial residual = 0.000964682, Final residual = 8.70198e-05, No Iterations 11
smoothSolver:  Solving for Uy, Initial residual = 0.0223615, Final residual = 0.00187124, No Iterations 11
smoothSolver:  Solving for Uz, Initial residual = 0.0187854, Final residual = 0.00152983, No Iterations 11
GAMG:  Solving for p, Initial residual = 0.00925574, Final residual = 7.67426e-05, No Iterations 4
time step continuity errors : sum local = 0.000115459, global = -3.83448e-07, cumulative = -1.5117e-05
smoothSolver:  Solving for omega, Initial residual = 0.000135275, Final residual = 7.29234e-06, No Iterations 4
bounding omega, min: -111.909 max: 81883.7 average: 929.553
smoothSolver:  Solving for k, Initial residual = 0.00184303, Final residual = 0.000134476, No Iterations 4
ExecutionTime = 28.47 s  ClockTime = 31 s

forceCoeffs forceCoeffs1 write:
    Cm    = 0.158418
    Cd    = 0.411054
    Cl    = 0.0744506
    Cl(f) = 0.195643
    Cl(r) = -0.121193

Time = 97

smoothSolver:  Solving for Ux, Initial residual = 0.000969093, Final residual = 8.68048e-05, No Iterations 11
smoothSolver:  Solving for Uy, Initial residual = 0.0224503, Final residual = 0.00187539, No Iterations 11
smoothSolver:  Solving for Uz, Initial residual = 0.018673, Final residual = 0.0015244, No Iterations 11
GAMG:  Solving for p, Initial residual = 0.00923237, Final residual = 7.46462e-05, No Iterations 4
time step continuity errors : sum local = 0.000112211, global = -1.38513e-07, cumulative = -1.52555e-05
smoothSolver:  Solving for omega, Initial residual = 0.000134279, Final residual = 7.25074e-06, No Iterations 4
smoothSolver:  Solving for k, Initial residual = 0.00184122, Final residual = 0.000134131, No Iterations 4
ExecutionTime = 28.51 s  ClockTime = 31 s

forceCoeffs forceCoeffs1 write:
    Cm    = 0.15826
    Cd    = 0.410913
    Cl    = 0.0749528
    Cl(f) = 0.195736
    Cl(r) = -0.120783

Time = 98

smoothSolver:  Solving for Ux, Initial residual = 0.000972153, Final residual = 8.65736e-05, No Iterations 11
smoothSolver:  Solving for Uy, Initial residual = 0.0225304, Final residual = 0.00187158, No Iterations 11
smoothSolver:  Solving for Uz, Initial residual = 0.0185478, Final residual = 0.00151363, No Iterations 11
GAMG:  Solving for p, Initial residual = 0.00921719, Final residual = 7.35975e-05, No Iterations 4
time step continuity errors : sum local = 0.000110543, global = 2.41906e-07, cumulative = -1.50136e-05
smoothSolver:  Solving for omega, Initial residual = 0.000134183, Final residual = 7.22189e-06, No Iterations 4
smoothSolver:  Solving for k, Initial residual = 0.00184503, Final residual = 0.000133948, No Iterations 4
ExecutionTime = 28.55 s  ClockTime = 31 s

forceCoeffs forceCoeffs1 write:
    Cm    = 0.157935
    Cd    = 0.410618
    Cl    = 0.0752333
    Cl(f) = 0.195552
    Cl(r) = -0.120319

Time = 99

smoothSolver:  Solving for Ux, Initial residual = 0.000971394, Final residual = 8.62338e-05, No Iterations 11
smoothSolver:  Solving for Uy, Initial residual = 0.0224687, Final residual = 0.00186801, No Iterations 11
smoothSolver:  Solving for Uz, Initial residual = 0.0183511, Final residual = 0.00149726, No Iterations 11
GAMG:  Solving for p, Initial residual = 0.0091676, Final residual = 7.35625e-05, No Iterations 4
time step continuity errors : sum local = 0.000110415, global = 6.15079e-07, cumulative = -1.43985e-05
smoothSolver:  Solving for omega, Initial residual = 0.000133769, Final residual = 7.17624e-06, No Iterations 4
smoothSolver:  Solving for k, Initial residual = 0.00184621, Final residual = 0.000133622, No Iterations 4
ExecutionTime = 28.59 s  ClockTime = 31 s

forceCoeffs forceCoeffs1 write:
    Cm    = 0.157466
    Cd    = 0.410188
    Cl    = 0.0752562
    Cl(f) = 0.195094
    Cl(r) = -0.119838

Time = 100

smoothSolver:  Solving for Ux, Initial residual = 0.000969065, Final residual = 8.58717e-05, No Iterations 11
smoothSolver:  Solving for Uy, Initial residual = 0.0222898, Final residual = 0.0018668, No Iterations 11
smoothSolver:  Solving for Uz, Initial residual = 0.0181307, Final residual = 0.00147872, No Iterations 11
GAMG:  Solving for p, Initial residual = 0.00908492, Final residual = 7.41913e-05, No Iterations 4
time step continuity errors : sum local = 0.000111303, global = 8.06032e-07, cumulative = -1.35925e-05
smoothSolver:  Solving for omega, Initial residual = 0.000133674, Final residual = 7.11096e-06, No Iterations 4
smoothSolver:  Solving for k, Initial residual = 0.00184399, Final residual = 0.00013322, No Iterations 4
ExecutionTime = 28.65 s  ClockTime = 32 s

forceCoeffs forceCoeffs1 write:
    Cm    = 0.156937
    Cd    = 0.409661
    Cl    = 0.0750512
    Cl(f) = 0.194463
    Cl(r) = -0.119412

End

Finalising parallel run
