/*---------------------------------------------------------------------------*\
  =========                 |
  \\      /  F ield         | OpenFOAM: The Open Source CFD Toolbox
   \\    /   O peration     | Website:  https://openfoam.org
    \\  /    A nd           | Version:  7
     \\/     M anipulation  |
\*---------------------------------------------------------------------------*/
Build  : 7
Exec   : snappyHexMesh -parallel -overwrite
Date   : Oct 14 2020
Time   : 12:00:20
Host   : "cpu-p-295"
PID    : 273591
I/O    : uncollated
Case   : /rds/user/hpcbras1/hpc-work/csd3/cclake-ib-gcc9-ompi3-ucx/openfoam/Openfoam_Mbike_8
nProcs : 256
Slaves : 
255
(
"cpu-p-295.273592"
"cpu-p-295.273593"
"cpu-p-295.273594"
"cpu-p-295.273595"
"cpu-p-295.273596"
"cpu-p-295.273597"
"cpu-p-295.273598"
"cpu-p-295.273599"
"cpu-p-295.273600"
"cpu-p-295.273601"
"cpu-p-295.273602"
"cpu-p-295.273603"
"cpu-p-295.273604"
"cpu-p-295.273605"
"cpu-p-295.273606"
"cpu-p-295.273607"
"cpu-p-295.273608"
"cpu-p-295.273609"
"cpu-p-295.273610"
"cpu-p-295.273611"
"cpu-p-295.273612"
"cpu-p-295.273613"
"cpu-p-295.273614"
"cpu-p-295.273615"
"cpu-p-295.273616"
"cpu-p-295.273617"
"cpu-p-295.273618"
"cpu-p-295.273619"
"cpu-p-295.273620"
"cpu-p-295.273621"
"cpu-p-295.273622"
"cpu-p-296.230351"
"cpu-p-296.230352"
"cpu-p-296.230353"
"cpu-p-296.230354"
"cpu-p-296.230355"
"cpu-p-296.230356"
"cpu-p-296.230357"
"cpu-p-296.230358"
"cpu-p-296.230359"
"cpu-p-296.230360"
"cpu-p-296.230361"
"cpu-p-296.230362"
"cpu-p-296.230363"
"cpu-p-296.230364"
"cpu-p-296.230365"
"cpu-p-296.230366"
"cpu-p-296.230367"
"cpu-p-296.230368"
"cpu-p-296.230369"
"cpu-p-296.230370"
"cpu-p-296.230371"
"cpu-p-296.230372"
"cpu-p-296.230373"
"cpu-p-296.230374"
"cpu-p-296.230375"
"cpu-p-296.230376"
"cpu-p-296.230377"
"cpu-p-296.230378"
"cpu-p-296.230379"
"cpu-p-296.230380"
"cpu-p-296.230381"
"cpu-p-296.230382"
"cpu-p-297.170674"
"cpu-p-297.170675"
"cpu-p-297.170676"
"cpu-p-297.170677"
"cpu-p-297.170678"
"cpu-p-297.170679"
"cpu-p-297.170680"
"cpu-p-297.170681"
"cpu-p-297.170682"
"cpu-p-297.170683"
"cpu-p-297.170684"
"cpu-p-297.170685"
"cpu-p-297.170686"
"cpu-p-297.170687"
"cpu-p-297.170688"
"cpu-p-297.170689"
"cpu-p-297.170690"
"cpu-p-297.170691"
"cpu-p-297.170692"
"cpu-p-297.170693"
"cpu-p-297.170694"
"cpu-p-297.170695"
"cpu-p-297.170696"
"cpu-p-297.170697"
"cpu-p-297.170698"
"cpu-p-297.170699"
"cpu-p-297.170700"
"cpu-p-297.170701"
"cpu-p-297.170702"
"cpu-p-297.170703"
"cpu-p-297.170704"
"cpu-p-297.170705"
"cpu-p-298.144273"
"cpu-p-298.144274"
"cpu-p-298.144275"
"cpu-p-298.144276"
"cpu-p-298.144277"
"cpu-p-298.144278"
"cpu-p-298.144279"
"cpu-p-298.144280"
"cpu-p-298.144281"
"cpu-p-298.144282"
"cpu-p-298.144283"
"cpu-p-298.144284"
"cpu-p-298.144285"
"cpu-p-298.144286"
"cpu-p-298.144287"
"cpu-p-298.144288"
"cpu-p-298.144289"
"cpu-p-298.144290"
"cpu-p-298.144291"
"cpu-p-298.144292"
"cpu-p-298.144293"
"cpu-p-298.144294"
"cpu-p-298.144295"
"cpu-p-298.144296"
"cpu-p-298.144297"
"cpu-p-298.144298"
"cpu-p-298.144299"
"cpu-p-298.144300"
"cpu-p-298.144302"
"cpu-p-298.144303"
"cpu-p-298.144304"
"cpu-p-298.144305"
"cpu-p-299.56450"
"cpu-p-299.56451"
"cpu-p-299.56452"
"cpu-p-299.56453"
"cpu-p-299.56454"
"cpu-p-299.56455"
"cpu-p-299.56456"
"cpu-p-299.56457"
"cpu-p-299.56458"
"cpu-p-299.56459"
"cpu-p-299.56460"
"cpu-p-299.56461"
"cpu-p-299.56462"
"cpu-p-299.56463"
"cpu-p-299.56464"
"cpu-p-299.56465"
"cpu-p-299.56466"
"cpu-p-299.56467"
"cpu-p-299.56468"
"cpu-p-299.56469"
"cpu-p-299.56470"
"cpu-p-299.56471"
"cpu-p-299.56472"
"cpu-p-299.56473"
"cpu-p-299.56474"
"cpu-p-299.56476"
"cpu-p-299.56477"
"cpu-p-299.56478"
"cpu-p-299.56479"
"cpu-p-299.56480"
"cpu-p-299.56481"
"cpu-p-299.56482"
"cpu-p-300.69312"
"cpu-p-300.69313"
"cpu-p-300.69314"
"cpu-p-300.69315"
"cpu-p-300.69316"
"cpu-p-300.69317"
"cpu-p-300.69318"
"cpu-p-300.69319"
"cpu-p-300.69320"
"cpu-p-300.69321"
"cpu-p-300.69322"
"cpu-p-300.69323"
"cpu-p-300.69324"
"cpu-p-300.69325"
"cpu-p-300.69326"
"cpu-p-300.69327"
"cpu-p-300.69328"
"cpu-p-300.69329"
"cpu-p-300.69330"
"cpu-p-300.69331"
"cpu-p-300.69332"
"cpu-p-300.69333"
"cpu-p-300.69334"
"cpu-p-300.69335"
"cpu-p-300.69336"
"cpu-p-300.69337"
"cpu-p-300.69338"
"cpu-p-300.69339"
"cpu-p-300.69340"
"cpu-p-300.69341"
"cpu-p-300.69342"
"cpu-p-300.69343"
"cpu-p-301.61527"
"cpu-p-301.61528"
"cpu-p-301.61529"
"cpu-p-301.61530"
"cpu-p-301.61531"
"cpu-p-301.61533"
"cpu-p-301.61534"
"cpu-p-301.61535"
"cpu-p-301.61536"
"cpu-p-301.61537"
"cpu-p-301.61538"
"cpu-p-301.61539"
"cpu-p-301.61540"
"cpu-p-301.61541"
"cpu-p-301.61542"
"cpu-p-301.61543"
"cpu-p-301.61544"
"cpu-p-301.61545"
"cpu-p-301.61546"
"cpu-p-301.61547"
"cpu-p-301.61548"
"cpu-p-301.61549"
"cpu-p-301.61550"
"cpu-p-301.61551"
"cpu-p-301.61552"
"cpu-p-301.61553"
"cpu-p-301.61554"
"cpu-p-301.61555"
"cpu-p-301.61556"
"cpu-p-301.61557"
"cpu-p-301.61558"
"cpu-p-301.61559"
"cpu-p-302.50633"
"cpu-p-302.50634"
"cpu-p-302.50635"
"cpu-p-302.50636"
"cpu-p-302.50637"
"cpu-p-302.50638"
"cpu-p-302.50639"
"cpu-p-302.50640"
"cpu-p-302.50641"
"cpu-p-302.50642"
"cpu-p-302.50643"
"cpu-p-302.50644"
"cpu-p-302.50645"
"cpu-p-302.50646"
"cpu-p-302.50647"
"cpu-p-302.50648"
"cpu-p-302.50649"
"cpu-p-302.50650"
"cpu-p-302.50651"
"cpu-p-302.50652"
"cpu-p-302.50654"
"cpu-p-302.50655"
"cpu-p-302.50656"
"cpu-p-302.50657"
"cpu-p-302.50658"
"cpu-p-302.50659"
"cpu-p-302.50660"
"cpu-p-302.50661"
"cpu-p-302.50662"
"cpu-p-302.50663"
"cpu-p-302.50664"
"cpu-p-302.50665"
)

Pstream initialized with:
    floatTransfer      : 0
    nProcsSimpleSum    : 0
    commsType          : nonBlocking
    polling iterations : 0
sigFpe : Enabling floating point exception trapping (FOAM_SIGFPE).
fileModificationChecking : Monitoring run-time modified files using timeStampMaster (fileModificationSkew 10)
allowSystemOperations : Allowing user-supplied system call operations

// * * * * * * * * * * * * * * * * * * * * * * * * * * * * * * * * * * * * * //
Create time

Create mesh for time = 0

Read mesh in = 0.05 s

Overall mesh bounding box  : (-5 -4 0) (15 4 8)
Relative tolerance         : 1e-06
Absolute matching distance : 2.29783e-05

Reading refinement surfaces.
Read refinement surfaces in = 1.37 s

Reading refinement shells.
Refinement level 4 for all cells inside refinementBox
Read refinement shells in = 0 s

Setting refinement level of surface to be consistent with shells.
Checked shell refinement in = 1.16 s

Reading features.
Read edgeMesh motorBike.eMesh
    points      : 20665
    edges       : 20867
    boundingBox : (-0.241214 -0.337971 -4.232e-05) (1.75115 0.329368 1.21979)

Refinement level according to distance to "motorBike.eMesh" (20665 points, 20867 edges).
    level 6 for all cells within 0 metre.
Read features in = 0.06 s


Determining initial surface intersections
-----------------------------------------

Edge intersection testing:
    Number of edges             : 32256
    Number of edges to retest   : 32256
    Number of intersected edges : 26
Calculated surface intersections in = 0.01 s

Initial mesh : cells:10240  faces:32256  points:11849
Cells per refinement level:
    0	10240

Adding patches for surface regions
----------------------------------

Patch Type                Region                        
----- ----                ------                        
motorBike:

5     wall                motorBike_frt-fairing:001%1   
6     wall                motorBike_windshield:002%2    
7     wall                motorBike_rr-wh-rim:005%5     
8     wall                motorBike_rr-wh-rim:010%10    
9     wall                motorBike_fr-wh-rim:011%11    
10    wall                motorBike_fr-wh-brake-disk:012%12
11    wall                motorBike_frame:016-shadow%13 
12    wall                motorBike_rear-susp:014%14    
13    wall                motorBike_rear-susp:014-shadow%15
14    wall                motorBike_frame:016%16        
15    wall                motorBike_rr-wh-rim:005-shadow%17
16    wall                motorBike_rr-wh-chain-hub:022%22
17    wall                motorBike_rearseat%24         
18    wall                motorBike_frt-fairing%25      
19    wall                motorBike_windshield%26       
20    wall                motorBike_headlights%27       
21    wall                motorBike_driversseat%28      
22    wall                motorBike_rear-body%29        
23    wall                motorBike_fuel-tank%30        
24    wall                motorBike_exhaust%31          
25    wall                motorBike_rr-wh-rim%32        
26    wall                motorBike_fr-mud-guard%33     
27    wall                motorBike_fr-wh-rim%34        
28    wall                motorBike_fr-wh-brake-disk%35 
29    wall                motorBike_fr-brake-caliper%36 
30    wall                motorBike_fr-wh-tyre%37       
31    wall                motorBike_hbars%38            
32    wall                motorBike_fr-forks%39         
33    wall                motorBike_chain%40            
34    wall                motorBike_rr-wh-tyre%41       
35    wall                motorBike_square-dial%42      
36    wall                motorBike_round-dial%43       
37    wall                motorBike_dial-holder%44      
38    wall                motorBike_rear-susp%45        
39    wall                motorBike_rear-brake-lights%46
40    wall                motorBike_rear-light-bracket%47
41    wall                motorBike_frame%48            
42    wall                motorBike_rear-mud-guard%49   
43    wall                motorBike_rear-susp-spring-damp%50
44    wall                motorBike_fairing-inner-plate%51
45    wall                motorBike_clutch-housing%52   
46    wall                motorBike_radiator%53         
47    wall                motorBike_water-pipe%54       
48    wall                motorBike_water-pump%55       
49    wall                motorBike_engine%56           
50    wall                motorBike_rear-shock-link%57  
51    wall                motorBike_rear-brake-fluid-pot-bracket%58
52    wall                motorBike_rear-brake-fluid-pot%59
53    wall                motorBike_footpeg%60          
54    wall                motorBike_rr-wh-chain-hub%61  
55    wall                motorBike_rear-brake-caliper%62
56    wall                motorBike_rider-helmet%65     
57    wall                motorBike_rider-visor%66      
58    wall                motorBike_rider-boots%67      
59    wall                motorBike_rider-gloves%68     
60    wall                motorBike_rider-body%69       
61    wall                motorBike_frame:0%70          
62    wall                motorBike_frt-fairing:001-shadow%74
63    wall                motorBike_windshield-shadow%75
64    wall                motorBike_fr-mud-guard-shadow%81
65    wall                motorBike_fr-wh-brake-disk-shadow%83
66    wall                motorBike_rear-mud-guard-shadow%84
67    wall                motorBike_rear-susp-spring-damp-shadow%85
68    wall                motorBike_radiator-shadow%86  
69    wall                motorBike_rear-shock-link-shadow%87
70    wall                motorBike_rear-brake-fluid-pot-bracket-shadow%88
[1]  Foam::decompositionMethod::New 
[1] {
[1]     numberOfSubdomains 256;
[1]     method          scotch;
[1]     simpleCoeffs
[1]     {
[1]         n               ( 4 1 1 );
[1]         delta           0.001;
[1]     }
[1]     hierarchicalCoeffs
[1]     {
[1]         n               ( 3 2 1 );
[1]         delta           0.001;
[1]         order           xyz;
[1]     }
[1]     manualCoeffs
[1]     {
[1]         dataFile        "cellDecomposition";
[1]     }
[1] }
[1] 
[1] Selecting decompositionMethod scotch
[2]  Foam::decompositionMethod::New 
[2] {
[2]     numberOfSubdomains 256;
[2]     method          scotch;
[2]     simpleCoeffs
[2]     {
[2]         n               ( 4 1 1 );
[2]         delta           0.001;
[2]     }
[2]     hierarchicalCoeffs
[2]     {
[2]         n               ( 3 2 1 );
[2]         delta           0.001;
[2]         order           xyz;
[2]     }
[2]     manualCoeffs
[2]     {
[2]         dataFile        "cellDecomposition";
[2]     }
[2] }
[2] 
[2] Selecting decompositionMethod scotch
[3]  Foam::decompositionMethod::New 
[3] {
[3]     numberOfSubdomains 256;
[3]     method          scotch;
[3]     simpleCoeffs
[3]     {
[3]         n               ( 4 1 1 );
[3]         delta           0.001;
[3]     }
[3]     hierarchicalCoeffs
[3]     {
[3]         n               ( 3 2 1 );
[3]         delta           0.001;
[3]         order           xyz;
[3]     }
[3]     manualCoeffs
[3]     {
[3]         dataFile        "cellDecomposition";
[3]     }
[3] }
[3] 
[3] Selecting decompositionMethod scotch
[4]  Foam::decompositionMethod::New 
[4] {
[4]     numberOfSubdomains 256;
[4]     method          scotch;
[4]     simpleCoeffs
[4]     {
[4]         n               ( 4 1 1 );
[4]         delta           0.001;
[4]     }
[4]     hierarchicalCoeffs
[4]     {
[4]         n               ( 3 2 1 );
[4]         delta           0.001;
[4]         order           xyz;
[4]     }
[4]     manualCoeffs
[4]     {
[4]         dataFile        "cellDecomposition";
[4]     }
[4] }
[4] 
[4] Selecting decompositionMethod scotch
[5]  Foam::decompositionMethod::New 
[5] {
[5]     numberOfSubdomains 256;
[5]     method          scotch;
[5]     simpleCoeffs
[5]     {
[5]         n               ( 4 1 1 );
[5]         delta           0.001;
[5]     }
[5]     hierarchicalCoeffs
[5]     {
[5]         n               ( 3 2 1 );
[5]         delta           0.001;
[5]         order           xyz;
[5]     }
[5]     manualCoeffs
[5]     {
[5]         dataFile        "cellDecomposition";
[5]     }
[5] }
[5] 
[5] Selecting decompositionMethod scotch
[6]  Foam::decompositionMethod::New 
[6] {
[6]     numberOfSubdomains 256;
[6]     method          scotch;
[6]     simpleCoeffs
[6]     {
[6]         n               ( 4 1 1 );
[6]         delta           0.001;
[6]     }
[6]     hierarchicalCoeffs
[6]     {
[6]         n               ( 3 2 1 );
[6]         delta           0.001;
[6]         order           xyz;
[6]     }
[6]     manualCoeffs
[6]     {
[6]         dataFile        "cellDecomposition";
[6]     }
[6] }
[6] 
[6] Selecting decompositionMethod scotch
[7]  Foam::decompositionMethod::New 
[7] {
[7]     numberOfSubdomains 256;
[7]     method          scotch;
[7]     simpleCoeffs
[7]     {
[7]         n               ( 4 1 1 );
[7]         delta           0.001;
[7]     }
[7]     hierarchicalCoeffs
[7]     {
[7]         n               ( 3 2 1 );
[7]         delta           0.001;
[7]         order           xyz;
[7]     }
[7]     manualCoeffs
[7]     {
[7]         dataFile        "cellDecomposition";
[7]     }
[7] }
[7] 
[7] Selecting decompositionMethod scotch
[8]  Foam::decompositionMethod::New 
[8] {
[8]     numberOfSubdomains 256;
[8]     method          scotch;
[8]     simpleCoeffs
[8]     {
[8]         n               ( 4 1 1 );
[8]         delta           0.001;
[8]     }
[8]     hierarchicalCoeffs
[8]     {
[8]         n               ( 3 2 1 );
[8]         delta           0.001;
[8]         order           xyz;
[8]     }
[8]     manualCoeffs
[8]     {
[8]         dataFile        "cellDecomposition";
[8]     }
[8] }
[8] 
[8] Selecting decompositionMethod scotch
[9]  Foam::decompositionMethod::New 
[9] {
[9]     numberOfSubdomains 256;
[9]     method          scotch;
[9]     simpleCoeffs
[9]     {
[9]         n               ( 4 1 1 );
[9]         delta           0.001;
[9]     }
[9]     hierarchicalCoeffs
[9]     {
[9]         n               ( 3 2 1 );
[9]         delta           0.001;
[9]         order           xyz;
[9]     }
[9]     manualCoeffs
[9]     {
[9]         dataFile        "cellDecomposition";
[9]     }
[9] }
[9] 
[9] Selecting decompositionMethod scotch
[10]  Foam::decompositionMethod::New 
[10] {
[10]     numberOfSubdomains 256;
[10]     method          scotch;
[10]     simpleCoeffs
[10]     {
[10]         n               ( 4 1 1 );
[10]         delta           0.001;
[10]     }
[10]     hierarchicalCoeffs
[10]     {
[10]         n               ( 3 2 1 );
[10]         delta           0.001;
[10]         order           xyz;
[10]     }
[10]     manualCoeffs
[10]     {
[10]         dataFile        "cellDecomposition";
[10]     }
[10] }
[10] 
[10] Selecting decompositionMethod scotch
[11]  Foam::decompositionMethod::New 
[11] {
[11]     numberOfSubdomains 256;
[11]     method          scotch;
[11]     simpleCoeffs
[11]     {
[11]         n               ( 4 1 1 );
[11]         delta           0.001;
[11]     }
[11]     hierarchicalCoeffs
[11]     {
[11]         n               ( 3 2 1 );
[11]         delta           0.001;
[11]         order           xyz;
[11]     }
[11]     manualCoeffs
[11]     {
[11]         dataFile        "cellDecomposition";
[11]     }
[11] }
[11] 
[11] Selecting decompositionMethod scotch
[12]  Foam::decompositionMethod::New 
[12] {
[12]     numberOfSubdomains 256;
[12]     method          scotch;
[12]     simpleCoeffs
[12]     {
[12]         n               ( 4 1 1 );
[12]         delta           0.001;
[12]     }
[12]     hierarchicalCoeffs
[12]     {
[12]         n               ( 3 2 1 );
[12]         delta           0.001;
[12]         order           xyz;
[12]     }
[12]     manualCoeffs
[12]     {
[12]         dataFile        "cellDecomposition";
[12]     }
[12] }
[12] 
[12] Selecting decompositionMethod scotch
[13]  Foam::decompositionMethod::New 
[13] {
[13]     numberOfSubdomains 256;
[13]     method          scotch;
[13]     simpleCoeffs
[13]     {
[13]         n               ( 4 1 1 );
[13]         delta           0.001;
[13]     }
[13]     hierarchicalCoeffs
[13]     {
[13]         n               ( 3 2 1 );
[13]         delta           0.001;
[13]         order           xyz;
[13]     }
[13]     manualCoeffs
[13]     {
[13]         dataFile        "cellDecomposition";
[13]     }
[13] }
[13] 
[13] Selecting decompositionMethod scotch
[14]  Foam::decompositionMethod::New 
[14] {
[14]     numberOfSubdomains 256;
[14]     method          scotch;
[14]     simpleCoeffs
[14]     {
[14]         n               ( 4 1 1 );
[14]         delta           0.001;
[14]     }
[14]     hierarchicalCoeffs
[14]     {
[14]         n               ( 3 2 1 );
[14]         delta           0.001;
[14]         order           xyz;
[14]     }
[14]     manualCoeffs
[14]     {
[14]         dataFile        "cellDecomposition";
[14]     }
[14] }
[14] 
[14] Selecting decompositionMethod scotch
[15]  Foam::decompositionMethod::New 
[15] {
[15]     numberOfSubdomains 256;
[15]     method          scotch;
[15]     simpleCoeffs
[15]     {
[15]         n               ( 4 1 1 );
[15]         delta           0.001;
[15]     }
[15]     hierarchicalCoeffs
[15]     {
[15]         n               ( 3 2 1 );
[15]         delta           0.001;
[15]         order           xyz;
[15]     }
[15]     manualCoeffs
[15]     {
[15]         dataFile        "cellDecomposition";
[15]     }
[15] }
[15] 
[15] Selecting decompositionMethod scotch
[16]  Foam::decompositionMethod::New 
[16] {
[16]     numberOfSubdomains 256;
[16]     method          scotch;
[16]     simpleCoeffs
[16]     {
[16]         n               ( 4 1 1 );
[16]         delta           0.001;
[16]     }
[16]     hierarchicalCoeffs
[16]     {
[16]         n               ( 3 2 1 );
[16]         delta           0.001;
[16]         order           xyz;
[16]     }
[16]     manualCoeffs
[16]     {
[16]         dataFile        "cellDecomposition";
[16]     }
[16] }
[16] 
[16] Selecting decompositionMethod scotch
[17]  Foam::decompositionMethod::New 
[17] {
[17]     numberOfSubdomains 256;
[17]     method          scotch;
[17]     simpleCoeffs
[17]     {
[17]         n               ( 4 1 1 );
[17]         delta           0.001;
[17]     }
[17]     hierarchicalCoeffs
[17]     {
[17]         n               ( 3 2 1 );
[17]         delta           0.001;
[17]         order           xyz;
[17]     }
[17]     manualCoeffs
[17]     {
[17]         dataFile        "cellDecomposition";
[17]     }
[17] }
[17] 
[17] Selecting decompositionMethod scotch
[18]  Foam::decompositionMethod::New 
[18] {
[18]     numberOfSubdomains 256;
[18]     method          scotch;
[18]     simpleCoeffs
[18]     {
[18]         n               ( 4 1 1 );
[18]         delta           0.001;
[18]     }
[18]     hierarchicalCoeffs
[18]     {
[18]         n               ( 3 2 1 );
[18]         delta           0.001;
[18]         order           xyz;
[18]     }
[18]     manualCoeffs
[18]     {
[18]         dataFile        "cellDecomposition";
[18]     }
[18] }
[18] 
[18] Selecting decompositionMethod scotch
[19]  Foam::decompositionMethod::New 
[19] {
[19]     numberOfSubdomains 256;
[19]     method          scotch;
[19]     simpleCoeffs
[19]     {
[19]         n               ( 4 1 1 );
[19]         delta           0.001;
[19]     }
[19]     hierarchicalCoeffs
[19]     {
[19]         n               ( 3 2 1 );
[19]         delta           0.001;
[19]         order           xyz;
[19]     }
[19]     manualCoeffs
[19]     {
[19]         dataFile        "cellDecomposition";
[19]     }
[19] }
[19] 
[19] Selecting decompositionMethod scotch
[20]  Foam::decompositionMethod::New 
[20] {
[20]     numberOfSubdomains 256;
[20]     method          scotch;
[20]     simpleCoeffs
[20]     {
[20]         n               ( 4 1 1 );
[20]         delta           0.001;
[20]     }
[20]     hierarchicalCoeffs
[20]     {
[20]         n               ( 3 2 1 );
[20]         delta           0.001;
[20]         order           xyz;
[20]     }
[20]     manualCoeffs
[20]     {
[20]         dataFile        "cellDecomposition";
[20]     }
[20] }
[20] 
[20] Selecting decompositionMethod scotch
[21]  Foam::decompositionMethod::New 
[21] {
[21]     numberOfSubdomains 256;
[21]     method          scotch;
[21]     simpleCoeffs
[21]     {
[21]         n               ( 4 1 1 );
[21]         delta           0.001;
[21]     }
[21]     hierarchicalCoeffs
[21]     {
[21]         n               ( 3 2 1 );
[21]         delta           0.001;
[21]         order           xyz;
[21]     }
[21]     manualCoeffs
[21]     {
[21]         dataFile        "cellDecomposition";
[21]     }
[21] }
[21] 
[21] Selecting decompositionMethod scotch
[22]  Foam::decompositionMethod::New 
[22] {
[22]     numberOfSubdomains 256;
[22]     method          scotch;
[22]     simpleCoeffs
[22]     {
[22]         n               ( 4 1 1 );
[22]         delta           0.001;
[22]     }
[22]     hierarchicalCoeffs
[22]     {
[22]         n               ( 3 2 1 );
[22]         delta           0.001;
[22]         order           xyz;
[22]     }
[22]     manualCoeffs
[22]     {
[22]         dataFile        "cellDecomposition";
[22]     }
[22] }
[22] 
[22] Selecting decompositionMethod scotch
[23]  Foam::decompositionMethod::New 
[23] {
[23]     numberOfSubdomains 256;
[23]     method          scotch;
[23]     simpleCoeffs
[23]     {
[23]         n               ( 4 1 1 );
[23]         delta           0.001;
[23]     }
[23]     hierarchicalCoeffs
[23]     {
[23]         n               ( 3 2 1 );
[23]         delta           0.001;
[23]         order           xyz;
[23]     }
[23]     manualCoeffs
[23]     {
[23]         dataFile        "cellDecomposition";
[23]     }
[23] }
[23] 
[23] Selecting decompositionMethod scotch
[24]  Foam::decompositionMethod::New 
[24] {
[24]     numberOfSubdomains 256;
[24]     method          scotch;
[24]     simpleCoeffs
[24]     {
[24]         n               ( 4 1 1 );
[24]         delta           0.001;
[24]     }
[24]     hierarchicalCoeffs
[24]     {
[24]         n               ( 3 2 1 );
[24]         delta           0.001;
[24]         order           xyz;
[24]     }
[24]     manualCoeffs
[24]     {
[24]         dataFile        "cellDecomposition";
[24]     }
[24] }
[24] 
[24] Selecting decompositionMethod scotch
[25]  Foam::decompositionMethod::New 
[25] {
[25]     numberOfSubdomains 256;
[25]     method          scotch;
[25]     simpleCoeffs
[25]     {
[25]         n               ( 4 1 1 );
[25]         delta           0.001;
[25]     }
[25]     hierarchicalCoeffs
[25]     {
[25]         n               ( 3 2 1 );
[25]         delta           0.001;
[25]         order           xyz;
[25]     }
[25]     manualCoeffs
[25]     {
[25]         dataFile        "cellDecomposition";
[25]     }
[25] }
[25] 
[25] Selecting decompositionMethod scotch
[26]  Foam::decompositionMethod::New 
[26] {
[26]     numberOfSubdomains 256;
[26]     method          scotch;
[26]     simpleCoeffs
[26]     {
[26]         n               ( 4 1 1 );
[26]         delta           0.001;
[26]     }
[26]     hierarchicalCoeffs
[26]     {
[26]         n               ( 3 2 1 );
[26]         delta           0.001;
[26]         order           xyz;
[26]     }
[26]     manualCoeffs
[26]     {
[26]         dataFile        "cellDecomposition";
[26]     }
[26] }
[26] 
[26] Selecting decompositionMethod scotch
[27]  Foam::decompositionMethod::New 
[27] {
[27]     numberOfSubdomains 256;
[27]     method          scotch;
[27]     simpleCoeffs
[27]     {
[27]         n               ( 4 1 1 );
[27]         delta           0.001;
[27]     }
[27]     hierarchicalCoeffs
[27]     {
[27]         n               ( 3 2 1 );
[27]         delta           0.001;
[27]         order           xyz;
[27]     }
[27]     manualCoeffs
[27]     {
[27]         dataFile        "cellDecomposition";
[27]     }
[27] }
[27] 
[27] Selecting decompositionMethod scotch
[28]  Foam::decompositionMethod::New 
[28] {
[28]     numberOfSubdomains 256;
[28]     method          scotch;
[28]     simpleCoeffs
[28]     {
[28]         n               ( 4 1 1 );
[28]         delta           0.001;
[28]     }
[28]     hierarchicalCoeffs
[28]     {
[28]         n               ( 3 2 1 );
[28]         delta           0.001;
[28]         order           xyz;
[28]     }
[28]     manualCoeffs
[28]     {
[28]         dataFile        "cellDecomposition";
[28]     }
[28] }
[28] 
[28] Selecting decompositionMethod scotch
[29]  Foam::decompositionMethod::New 
[29] {
[29]     numberOfSubdomains 256;
[29]     method          scotch;
[29]     simpleCoeffs
[29]     {
[29]         n               ( 4 1 1 );
[29]         delta           0.001;
[29]     }
[29]     hierarchicalCoeffs
[29]     {
[29]         n               ( 3 2 1 );
[29]         delta           0.001;
[29]         order           xyz;
[29]     }
[29]     manualCoeffs
[29]     {
[29]         dataFile        "cellDecomposition";
[29]     }
[29] }
[29] 
[29] Selecting decompositionMethod scotch
[30]  Foam::decompositionMethod::New 
[30] {
[30]     numberOfSubdomains 256;
[30]     method          scotch;
[30]     simpleCoeffs
[30]     {
[30]         n               ( 4 1 1 );
[30]         delta           0.001;
[30]     }
[30]     hierarchicalCoeffs
[30]     {
[30]         n               ( 3 2 1 );
[30]         delta           0.001;
[30]         order           xyz;
[30]     }
[30]     manualCoeffs
[30]     {
[30]         dataFile        "cellDecomposition";
[30]     }
[30] }
[30] 
[30] Selecting decompositionMethod scotch
[31]  Foam::decompositionMethod::New 
[31] {
[31]     numberOfSubdomains 256;
[31]     method          scotch;
[31]     simpleCoeffs
[31]     {
[31]         n               ( 4 1 1 );
[31]         delta           0.001;
[31]     }
[31]     hierarchicalCoeffs
[31]     {
[31]         n               ( 3 2 1 );
[31]         delta           0.001;
[31]         order           xyz;
[31]     }
[31]     manualCoeffs
[31]     {
[31]         dataFile        "cellDecomposition";
[31]     }
[31] }
[31] 
[31] Selecting decompositionMethod scotch
71    wall                motorBike_rr-wh-chain-hub-shadow%89

Added patches in = 0.04 s

[0]  Foam::decompositionMethod::New 
[0] {
[0]     numberOfSubdomains 256;
[0]     method          scotch;
[0]     simpleCoeffs
[0]     {
[0]         n               ( 4 1 1 );
[0]         delta           0.001;
[0]     }
[0]     hierarchicalCoeffs
[0]     {
[0]         n               ( 3 2 1 );
[0]         delta           0.001;
[0]         order           xyz;
[0]     }
[0]     manualCoeffs
[0]     {
[0]         dataFile        "cellDecomposition";
[0]     }
[0] }
[0] 
[0] Selecting decompositionMethod scotch
Layer thickness specified as final layer and expansion ratio.

Refinement phase
----------------

[96]  Foam::decompositionMethod::New 
[96] {
[96]     numberOfSubdomains 256;
[96]     method          scotch;
[96]     simpleCoeffs
[96]     {
[96]         n               ( 4 1 1 );
[96]         delta           0.001;
[96]     }
[96]     hierarchicalCoeffs
[96]     {
[96]         n               ( 3 2 1 );
[96]         delta           0.001;
[96]         order           xyz;
[96]     }
[96]     manualCoeffs
[96]     {
[96]         dataFile        "cellDecomposition";
[96]     }
[96] }
[96] 
[96] Selecting decompositionMethod scotch
[97]  Foam::decompositionMethod::New 
[97] {
[97]     numberOfSubdomains 256;
[97]     method          scotch;
[97]     simpleCoeffs
[97]     {
[97]         n               ( 4 1 1 );
[97]         delta           0.001;
[97]     }
[97]     hierarchicalCoeffs
[97]     {
[97]         n               ( 3 2 1 );
[97]         delta           0.001;
[97]         order           xyz;
[97]     }
[97]     manualCoeffs
[97]     {
[97]         dataFile        "cellDecomposition";
[97]     }
[97] }
[97] 
[97] Selecting decompositionMethod scotch
[98]  Foam::decompositionMethod::New 
[98] {
[98]     numberOfSubdomains 256;
[98]     method          scotch;
[98]     simpleCoeffs
[98]     {
[98]         n               ( 4 1 1 );
[98]         delta           0.001;
[98]     }
[98]     hierarchicalCoeffs
[98]     {
[98]         n               ( 3 2 1 );
[98]         delta           0.001;
[98]         order           xyz;
[98]     }
[98]     manualCoeffs
[98]     {
[98]         dataFile        "cellDecomposition";
[98]     }
[98] }
[98] 
[98] Selecting decompositionMethod scotch
[192]  Foam::decompositionMethod::New 
[192] {
[192]     numberOfSubdomains 256;
[192]     method          scotch;
[192]     simpleCoeffs
[192]     {
[192]         n               ( 4 1 1 );
[192]         delta           0.001;
[192]     }
[192]     hierarchicalCoeffs
[192]     {
[192]         n               ( 3 2 1 );
[192]         delta           0.001;
[192]         order           xyz;
[192]     }
[192]     manualCoeffs
[192]     {
[192]         dataFile        "cellDecomposition";
[192]     }
[192] }
[192] 
[192] Selecting decompositionMethod scotch
[224]  Foam::decompositionMethod::New 
[224] {
[224]     numberOfSubdomains 256;
[224]     method          scotch;
[224]     simpleCoeffs
[224]     {
[224]         n               ( 4 1 1 );
[224]         delta           0.001;
[224]     }
[224]     hierarchicalCoeffs
[224]     {
[224]         n               ( 3 2 1 );
[224]         delta           0.001;
[224]         order           xyz;
[224]     }
[224]     manualCoeffs
[224]     {
[224]         dataFile        "cellDecomposition";
[224]     }
[224] }
[224] 
[224] Selecting decompositionMethod scotch
[99]  Foam::decompositionMethod::New 
[99] {
[99]     numberOfSubdomains 256;
[99]     method          scotch;
[99]     simpleCoeffs
[99]     {
[99]         n               ( 4 1 1 );
[99]         delta           0.001;
[99]     }
[99]     hierarchicalCoeffs
[99]     {
[99]         n               ( 3 2 1 );
[99]         delta           0.001;
[99]         order           xyz;
[99]     }
[99]     manualCoeffs
[99]     {
[99]         dataFile        "cellDecomposition";
[99]     }
[99] }
[99] 
[99] Selecting decompositionMethod scotch
[193]  Foam::decompositionMethod::New 
[193] {
[193]     numberOfSubdomains 256;
[193]     method          scotch;
[193]     simpleCoeffs
[193]     {
[193]         n               ( 4 1 1 );
[193]         delta           0.001;
[193]     }
[193]     hierarchicalCoeffs
[193]     {
[193]         n               ( 3 2 1 );
[193]         delta           0.001;
[193]         order           xyz;
[193]     }
[193]     manualCoeffs
[193]     {
[193]         dataFile        "cellDecomposition";
[193]     }
[193] }
[193] 
[193] Selecting decompositionMethod scotch
[225]  Foam::decompositionMethod::New 
[225] {
[225]     numberOfSubdomains 256;
[225]     method          scotch;
[225]     simpleCoeffs
[225]     {
[225]         n               ( 4 1 1 );
[225]         delta           0.001;
[225]     }
[225]     hierarchicalCoeffs
[225]     {
[225]         n               ( 3 2 1 );
[225]         delta           0.001;
[225]         order           xyz;
[225]     }
[225]     manualCoeffs
[225]     {
[225]         dataFile        "cellDecomposition";
[225]     }
[225] }
[225] 
[225] Selecting decompositionMethod scotch
[100]  Foam::decompositionMethod::New 
[100] {
[100]     numberOfSubdomains 256;
[100]     method          scotch;
[100]     simpleCoeffs
[100]     {
[100]         n               ( 4 1 1 );
[100]         delta           0.001;
[100]     }
[100]     hierarchicalCoeffs
[100]     {
[100]         n               ( 3 2 1 );
[100]         delta           0.001;
[100]         order           xyz;
[100]     }
[100]     manualCoeffs
[100]     {
[100]         dataFile        "cellDecomposition";
[100]     }
[100] }
[100] 
[100] Selecting decompositionMethod scotch
[194]  Foam::decompositionMethod::New 
[194] {
[194]     numberOfSubdomains 256;
[194]     method          scotch;
[194]     simpleCoeffs
[194]     {
[194]         n               ( 4 1 1 );
[194]         delta           0.001;
[194]     }
[194]     hierarchicalCoeffs
[194]     {
[194]         n               ( 3 2 1 );
[194]         delta           0.001;
[194]         order           xyz;
[194]     }
[194]     manualCoeffs
[194]     {
[194]         dataFile        "cellDecomposition";
[194]     }
[194] }
[194] 
[194] Selecting decompositionMethod scotch
[226]  Foam::decompositionMethod::New 
[226] {
[226]     numberOfSubdomains 256;
[226]     method          scotch;
[226]     simpleCoeffs
[226]     {
[226]         n               ( 4 1 1 );
[226]         delta           0.001;
[226]     }
[226]     hierarchicalCoeffs
[226]     {
[226]         n               ( 3 2 1 );
[226]         delta           0.001;
[226]         order           xyz;
[226]     }
[226]     manualCoeffs
[226]     {
[226]         dataFile        "cellDecomposition";
[226]     }
[226] }
[226] 
[226] Selecting decompositionMethod scotch
[101]  Foam::decompositionMethod::New 
[101] {
[101]     numberOfSubdomains 256;
[101]     method          scotch;
[101]     simpleCoeffs
[101]     {
[101]         n               ( 4 1 1 );
[101]         delta           0.001;
[101]     }
[101]     hierarchicalCoeffs
[101]     {
[101]         n               ( 3 2 1 );
[101]         delta           0.001;
[101]         order           xyz;
[101]     }
[101]     manualCoeffs
[101]     {
[101]         dataFile        "cellDecomposition";
[101]     }
[101] }
[101] 
[101] Selecting decompositionMethod scotch
[195]  Foam::decompositionMethod::New 
[195] {
[195]     numberOfSubdomains 256;
[195]     method          scotch;
[195]     simpleCoeffs
[195]     {
[195]         n               ( 4 1 1 );
[195]         delta           0.001;
[195]     }
[195]     hierarchicalCoeffs
[195]     {
[195]         n               ( 3 2 1 );
[195]         delta           0.001;
[195]         order           xyz;
[195]     }
[195]     manualCoeffs
[195]     {
[195]         dataFile        "cellDecomposition";
[195]     }
[195] }
[195] 
[195] Selecting decompositionMethod scotch
[227]  Foam::decompositionMethod::New 
[227] {
[227]     numberOfSubdomains 256;
[227]     method          scotch;
[227]     simpleCoeffs
[227]     {
[227]         n               ( 4 1 1 );
[227]         delta           0.001;
[227]     }
[227]     hierarchicalCoeffs
[227]     {
[227]         n               ( 3 2 1 );
[227]         delta           0.001;
[227]         order           xyz;
[227]     }
[227]     manualCoeffs
[227]     {
[227]         dataFile        "cellDecomposition";
[227]     }
[227] }
[227] 
[227] Selecting decompositionMethod scotch
[102]  Foam::decompositionMethod::New 
[102] {
[102]     numberOfSubdomains 256;
[102]     method          scotch;
[102]     simpleCoeffs
[102]     {
[102]         n               ( 4 1 1 );
[102]         delta           0.001;
[102]     }
[102]     hierarchicalCoeffs
[102]     {
[102]         n               ( 3 2 1 );
[102]         delta           0.001;
[102]         order           xyz;
[102]     }
[102]     manualCoeffs
[102]     {
[102]         dataFile        "cellDecomposition";
[102]     }
[102] }
[102] 
[102] Selecting decompositionMethod scotch
[196]  Foam::decompositionMethod::New 
[196] {
[196]     numberOfSubdomains 256;
[196]     method          scotch;
[196]     simpleCoeffs
[196]     {
[196]         n               ( 4 1 1 );
[196]         delta           0.001;
[196]     }
[196]     hierarchicalCoeffs
[196]     {
[196]         n               ( 3 2 1 );
[196]         delta           0.001;
[196]         order           xyz;
[196]     }
[196]     manualCoeffs
[196]     {
[196]         dataFile        "cellDecomposition";
[196]     }
[196] }
[196] 
[196] Selecting decompositionMethod scotch
[228]  Foam::decompositionMethod::New 
[228] {
[228]     numberOfSubdomains 256;
[228]     method          scotch;
[228]     simpleCoeffs
[228]     {
[228]         n               ( 4 1 1 );
[228]         delta           0.001;
[228]     }
[228]     hierarchicalCoeffs
[228]     {
[228]         n               ( 3 2 1 );
[228]         delta           0.001;
[228]         order           xyz;
[228]     }
[228]     manualCoeffs
[228]     {
[228]         dataFile        "cellDecomposition";
[228]     }
[228] }
[228] 
[228] Selecting decompositionMethod scotch
[128]  Foam::decompositionMethod::New 
[128] {
[128]     numberOfSubdomains 256;
[128]     method          scotch;
[128]     simpleCoeffs
[128]     {
[128]         n               ( 4 1 1 );
[128]         delta           0.001;
[128]     }
[128]     hierarchicalCoeffs
[128]     {
[128]         n               ( 3 2 1 );
[128]         delta           0.001;
[128]         order           xyz;
[128]     }
[128]     manualCoeffs
[128]     {
[128]         dataFile        "cellDecomposition";
[128]     }
[128] }
[128] 
[128] Selecting decompositionMethod scotch
[103]  Foam::decompositionMethod::New 
[103] {
[103]     numberOfSubdomains 256;
[103]     method          scotch;
[103]     simpleCoeffs
[103]     {
[103]         n               ( 4 1 1 );
[103]         delta           0.001;
[103]     }
[103]     hierarchicalCoeffs
[103]     {
[103]         n               ( 3 2 1 );
[103]         delta           0.001;
[103]         order           xyz;
[103]     }
[103]     manualCoeffs
[103]     {
[103]         dataFile        "cellDecomposition";
[103]     }
[103] }
[103] 
[103] Selecting decompositionMethod scotch
[197]  Foam::decompositionMethod::New 
[197] {
[197]     numberOfSubdomains 256;
[197]     method          scotch;
[197]     simpleCoeffs
[197]     {
[197]         n               ( 4 1 1 );
[197]         delta           0.001;
[197]     }
[197]     hierarchicalCoeffs
[197]     {
[197]         n               ( 3 2 1 );
[197]         delta           0.001;
[197]         order           xyz;
[197]     }
[197]     manualCoeffs
[197]     {
[197]         dataFile        "cellDecomposition";
[197]     }
[197] }
[197] 
[197] Selecting decompositionMethod scotch
[64]  Foam::decompositionMethod::New 
[64] {
[64]     numberOfSubdomains 256;
[64]     method          scotch;
[64]     simpleCoeffs
[64]     {
[64]         n               ( 4 1 1 );
[64]         delta           0.001;
[64]     }
[64]     hierarchicalCoeffs
[64]     {
[64]         n               ( 3 2 1 );
[64]         delta           0.001;
[64]         order           xyz;
[64]     }
[64]     manualCoeffs
[64]     {
[64]         dataFile        "cellDecomposition";
[64]     }
[64] }
[64] 
[64] Selecting decompositionMethod scotch
[229]  Foam::decompositionMethod::New 
[229] {
[229]     numberOfSubdomains 256;
[229]     method          scotch;
[229]     simpleCoeffs
[229]     {
[229]         n               ( 4 1 1 );
[229]         delta           0.001;
[229]     }
[229]     hierarchicalCoeffs
[229]     {
[229]         n               ( 3 2 1 );
[229]         delta           0.001;
[229]         order           xyz;
[229]     }
[229]     manualCoeffs
[229]     {
[229]         dataFile        "cellDecomposition";
[229]     }
[229] }
[229] 
[229] Selecting decompositionMethod scotch
[129]  Foam::decompositionMethod::New 
[129] {
[129]     numberOfSubdomains 256;
[129]     method          scotch;
[129]     simpleCoeffs
[129]     {
[129]         n               ( 4 1 1 );
[129]         delta           0.001;
[129]     }
[129]     hierarchicalCoeffs
[129]     {
[129]         n               ( 3 2 1 );
[129]         delta           0.001;
[129]         order           xyz;
[129]     }
[129]     manualCoeffs
[129]     {
[129]         dataFile        "cellDecomposition";
[129]     }
[129] }
[129] 
[129] Selecting decompositionMethod scotch
[104]  Foam::decompositionMethod::New 
[104] {
[104]     numberOfSubdomains 256;
[104]     method          scotch;
[104]     simpleCoeffs
[104]     {
[104]         n               ( 4 1 1 );
[104]         delta           0.001;
[104]     }
[104]     hierarchicalCoeffs
[104]     {
[104]         n               ( 3 2 1 );
[104]         delta           0.001;
[104]         order           xyz;
[104]     }
[104]     manualCoeffs
[104]     {
[104]         dataFile        "cellDecomposition";
[104]     }
[104] }
[104] 
[104] Selecting decompositionMethod scotch
[198]  Foam::decompositionMethod::New 
[198] {
[198]     numberOfSubdomains 256;
[198]     method          scotch;
[198]     simpleCoeffs
[198]     {
[198]         n               ( 4 1 1 );
[198]         delta           0.001;
[198]     }
[198]     hierarchicalCoeffs
[198]     {
[198]         n               ( 3 2 1 );
[198]         delta           0.001;
[198]         order           xyz;
[198]     }
[198]     manualCoeffs
[198]     {
[198]         dataFile        "cellDecomposition";
[198]     }
[198] }
[198] 
[198] Selecting decompositionMethod scotch
[65]  Foam::decompositionMethod::New 
[65] {
[65]     numberOfSubdomains 256;
[65]     method          scotch;
[65]     simpleCoeffs
[65]     {
[65]         n               ( 4 1 1 );
[65]         delta           0.001;
[65]     }
[65]     hierarchicalCoeffs
[65]     {
[65]         n               ( 3 2 1 );
[65]         delta           0.001;
[65]         order           xyz;
[65]     }
[65]     manualCoeffs
[65]     {
[65]         dataFile        "cellDecomposition";
[65]     }
[65] }
[65] 
[65] Selecting decompositionMethod scotch
[230]  Foam::decompositionMethod::New 
[230] {
[230]     numberOfSubdomains 256;
[230]     method          scotch;
[230]     simpleCoeffs
[230]     {
[230]         n               ( 4 1 1 );
[230]         delta           0.001;
[230]     }
[230]     hierarchicalCoeffs
[230]     {
[230]         n               ( 3 2 1 );
[230]         delta           0.001;
[230]         order           xyz;
[230]     }
[230]     manualCoeffs
[230]     {
[230]         dataFile        "cellDecomposition";
[230]     }
[230] }
[230] 
[230] Selecting decompositionMethod scotch
[130]  Foam::decompositionMethod::New 
[130] {
[130]     numberOfSubdomains 256;
[130]     method          scotch;
[130]     simpleCoeffs
[130]     {
[130]         n               ( 4 1 1 );
[130]         delta           0.001;
[130]     }
[130]     hierarchicalCoeffs
[130]     {
[130]         n               ( 3 2 1 );
[130]         delta           0.001;
[130]         order           xyz;
[130]     }
[130]     manualCoeffs
[130]     {
[130]         dataFile        "cellDecomposition";
[130]     }
[130] }
[130] 
[130] Selecting decompositionMethod scotch
[105]  Foam::decompositionMethod::New 
[105] {
[105]     numberOfSubdomains 256;
[105]     method          scotch;
[105]     simpleCoeffs
[105]     {
[105]         n               ( 4 1 1 );
[105]         delta           0.001;
[105]     }
[105]     hierarchicalCoeffs
[105]     {
[105]         n               ( 3 2 1 );
[105]         delta           0.001;
[105]         order           xyz;
[105]     }
[105]     manualCoeffs
[105]     {
[105]         dataFile        "cellDecomposition";
[105]     }
[105] }
[105] 
[105] Selecting decompositionMethod scotch
[199]  Foam::decompositionMethod::New 
[199] {
[199]     numberOfSubdomains 256;
[199]     method          scotch;
[199]     simpleCoeffs
[199]     {
[199]         n               ( 4 1 1 );
[199]         delta           0.001;
[199]     }
[199]     hierarchicalCoeffs
[199]     {
[199]         n               ( 3 2 1 );
[199]         delta           0.001;
[199]         order           xyz;
[199]     }
[199]     manualCoeffs
[199]     {
[199]         dataFile        "cellDecomposition";
[199]     }
[199] }
[199] 
[199] Selecting decompositionMethod scotch
[32]  Foam::decompositionMethod::New 
[32] {
[32]     numberOfSubdomains 256;
[32]     method          scotch;
[32]     simpleCoeffs
[32]     {
[32]         n               ( 4 1 1 );
[32]         delta           0.001;
[32]     }
[32]     hierarchicalCoeffs
[32]     {
[32]         n               ( 3 2 1 );
[32]         delta           0.001;
[32]         order           xyz;
[32]     }
[32]     manualCoeffs
[32]     {
[32]         dataFile        "cellDecomposition";
[32]     }
[32] }
[32] 
[32] Selecting decompositionMethod scotch
[66]  Foam::decompositionMethod::New 
[66] {
[66]     numberOfSubdomains 256;
[66]     method          scotch;
[66]     simpleCoeffs
[66]     {
[66]         n               ( 4 1 1 );
[66]         delta           0.001;
[66]     }
[66]     hierarchicalCoeffs
[66]     {
[66]         n               ( 3 2 1 );
[66]         delta           0.001;
[66]         order           xyz;
[66]     }
[66]     manualCoeffs
[66]     {
[66]         dataFile        "cellDecomposition";
[66]     }
[66] }
[66] 
[66] Selecting decompositionMethod scotch
[231]  Foam::decompositionMethod::New 
[231] {
[231]     numberOfSubdomains 256;
[231]     method          scotch;
[231]     simpleCoeffs
[231]     {
[231]         n               ( 4 1 1 );
[231]         delta           0.001;
[231]     }
[231]     hierarchicalCoeffs
[231]     {
[231]         n               ( 3 2 1 );
[231]         delta           0.001;
[231]         order           xyz;
[231]     }
[231]     manualCoeffs
[231]     {
[231]         dataFile        "cellDecomposition";
[231]     }
[231] }
[231] 
[231] Selecting decompositionMethod scotch
[131]  Foam::decompositionMethod::New 
[131] {
[131]     numberOfSubdomains 256;
[131]     method          scotch;
[131]     simpleCoeffs
[131]     {
[131]         n               ( 4 1 1 );
[131]         delta           0.001;
[131]     }
[131]     hierarchicalCoeffs
[131]     {
[131]         n               ( 3 2 1 );
[131]         delta           0.001;
[131]         order           xyz;
[131]     }
[131]     manualCoeffs
[131]     {
[131]         dataFile        "cellDecomposition";
[131]     }
[131] }
[131] 
[131] Selecting decompositionMethod scotch
[106]  Foam::decompositionMethod::New 
[106] {
[106]     numberOfSubdomains 256;
[106]     method          scotch;
[106]     simpleCoeffs
[106]     {
[106]         n               ( 4 1 1 );
[106]         delta           0.001;
[106]     }
[106]     hierarchicalCoeffs
[106]     {
[106]         n               ( 3 2 1 );
[106]         delta           0.001;
[106]         order           xyz;
[106]     }
[106]     manualCoeffs
[106]     {
[106]         dataFile        "cellDecomposition";
[106]     }
[106] }
[106] 
[106] Selecting decompositionMethod scotch
[200]  Foam::decompositionMethod::New 
[200] {
[200]     numberOfSubdomains 256;
[200]     method          scotch;
[200]     simpleCoeffs
[200]     {
[200]         n               ( 4 1 1 );
[200]         delta           0.001;
[200]     }
[200]     hierarchicalCoeffs
[200]     {
[200]         n               ( 3 2 1 );
[200]         delta           0.001;
[200]         order           xyz;
[200]     }
[200]     manualCoeffs
[200]     {
[200]         dataFile        "cellDecomposition";
[200]     }
[200] }
[200] 
[200] Selecting decompositionMethod scotch
[33]  Foam::decompositionMethod::New 
[33] {
[33]     numberOfSubdomains 256;
[33]     method          scotch;
[33]     simpleCoeffs
[33]     {
[33]         n               ( 4 1 1 );
[33]         delta           0.001;
[33]     }
[33]     hierarchicalCoeffs
[33]     {
[33]         n               ( 3 2 1 );
[33]         delta           0.001;
[33]         order           xyz;
[33]     }
[33]     manualCoeffs
[33]     {
[33]         dataFile        "cellDecomposition";
[33]     }
[33] }
[33] 
[33] Selecting decompositionMethod scotch
[67]  Foam::decompositionMethod::New 
[67] {
[67]     numberOfSubdomains 256;
[67]     method          scotch;
[67]     simpleCoeffs
[67]     {
[67]         n               ( 4 1 1 );
[67]         delta           0.001;
[67]     }
[67]     hierarchicalCoeffs
[67]     {
[67]         n               ( 3 2 1 );
[67]         delta           0.001;
[67]         order           xyz;
[67]     }
[67]     manualCoeffs
[67]     {
[67]         dataFile        "cellDecomposition";
[67]     }
[67] }
[67] 
[67] Selecting decompositionMethod scotch
[232]  Foam::decompositionMethod::New 
[232] {
[232]     numberOfSubdomains 256;
[232]     method          scotch;
[232]     simpleCoeffs
[232]     {
[232]         n               ( 4 1 1 );
[232]         delta           0.001;
[232]     }
[232]     hierarchicalCoeffs
[232]     {
[232]         n               ( 3 2 1 );
[232]         delta           0.001;
[232]         order           xyz;
[232]     }
[232]     manualCoeffs
[232]     {
[232]         dataFile        "cellDecomposition";
[232]     }
[232] }
[232] 
[232] Selecting decompositionMethod scotch
[132]  Foam::decompositionMethod::New 
[132] {
[132]     numberOfSubdomains 256;
[132]     method          scotch;
[132]     simpleCoeffs
[132]     {
[132]         n               ( 4 1 1 );
[132]         delta           0.001;
[132]     }
[132]     hierarchicalCoeffs
[132]     {
[132]         n               ( 3 2 1 );
[132]         delta           0.001;
[132]         order           xyz;
[132]     }
[132]     manualCoeffs
[132]     {
[132]         dataFile        "cellDecomposition";
[132]     }
[132] }
[132] 
[132] Selecting decompositionMethod scotch
[107]  Foam::decompositionMethod::New 
[107] {
[107]     numberOfSubdomains 256;
[107]     method          scotch;
[107]     simpleCoeffs
[107]     {
[107]         n               ( 4 1 1 );
[107]         delta           0.001;
[107]     }
[107]     hierarchicalCoeffs
[107]     {
[107]         n               ( 3 2 1 );
[107]         delta           0.001;
[107]         order           xyz;
[107]     }
[107]     manualCoeffs
[107]     {
[107]         dataFile        "cellDecomposition";
[107]     }
[107] }
[107] 
[107] Selecting decompositionMethod scotch
[201]  Foam::decompositionMethod::New 
[201] {
[201]     numberOfSubdomains 256;
[201]     method          scotch;
[201]     simpleCoeffs
[201]     {
[201]         n               ( 4 1 1 );
[201]         delta           0.001;
[201]     }
[201]     hierarchicalCoeffs
[201]     {
[201]         n               ( 3 2 1 );
[201]         delta           0.001;
[201]         order           xyz;
[201]     }
[201]     manualCoeffs
[201]     {
[201]         dataFile        "cellDecomposition";
[201]     }
[201] }
[201] 
[201] Selecting decompositionMethod scotch
[34]  Foam::decompositionMethod::New 
[34] {
[34]     numberOfSubdomains 256;
[34]     method          scotch;
[34]     simpleCoeffs
[34]     {
[34]         n               ( 4 1 1 );
[34]         delta           0.001;
[34]     }
[34]     hierarchicalCoeffs
[34]     {
[34]         n               ( 3 2 1 );
[34]         delta           0.001;
[34]         order           xyz;
[34]     }
[34]     manualCoeffs
[34]     {
[34]         dataFile        "cellDecomposition";
[34]     }
[34] }
[34] 
[34] Selecting decompositionMethod scotch
[68]  Foam::decompositionMethod::New 
[68] {
[68]     numberOfSubdomains 256;
[68]     method          scotch;
[68]     simpleCoeffs
[68]     {
[68]         n               ( 4 1 1 );
[68]         delta           0.001;
[68]     }
[68]     hierarchicalCoeffs
[68]     {
[68]         n               ( 3 2 1 );
[68]         delta           0.001;
[68]         order           xyz;
[68]     }
[68]     manualCoeffs
[68]     {
[68]         dataFile        "cellDecomposition";
[68]     }
[68] }
[68] 
[68] Selecting decompositionMethod scotch
[233]  Foam::decompositionMethod::New 
[233] {
[233]     numberOfSubdomains 256;
[233]     method          scotch;
[233]     simpleCoeffs
[233]     {
[233]         n               ( 4 1 1 );
[233]         delta           0.001;
[233]     }
[233]     hierarchicalCoeffs
[233]     {
[233]         n               ( 3 2 1 );
[233]         delta           0.001;
[233]         order           xyz;
[233]     }
[233]     manualCoeffs
[233]     {
[233]         dataFile        "cellDecomposition";
[233]     }
[233] }
[233] 
[233] Selecting decompositionMethod scotch
[160]  Foam::decompositionMethod::New 
[160] {
[160]     numberOfSubdomains 256;
[160]     method          scotch;
[160]     simpleCoeffs
[160]     {
[160]         n               ( 4 1 1 );
[160]         delta           0.001;
[160]     }
[160]     hierarchicalCoeffs
[160]     {
[160]         n               ( 3 2 1 );
[160]         delta           0.001;
[160]         order           xyz;
[160]     }
[160]     manualCoeffs
[160]     {
[160]         dataFile        "cellDecomposition";
[160]     }
[160] }
[160] 
[160] Selecting decompositionMethod scotch
[133]  Foam::decompositionMethod::New 
[133] {
[133]     numberOfSubdomains 256;
[133]     method          scotch;
[133]     simpleCoeffs
[133]     {
[133]         n               ( 4 1 1 );
[133]         delta           0.001;
[133]     }
[133]     hierarchicalCoeffs
[133]     {
[133]         n               ( 3 2 1 );
[133]         delta           0.001;
[133]         order           xyz;
[133]     }
[133]     manualCoeffs
[133]     {
[133]         dataFile        "cellDecomposition";
[133]     }
[133] }
[133] 
[133] Selecting decompositionMethod scotch
[108]  Foam::decompositionMethod::New 
[108] {
[108]     numberOfSubdomains 256;
[108]     method          scotch;
[108]     simpleCoeffs
[108]     {
[108]         n               ( 4 1 1 );
[108]         delta           0.001;
[108]     }
[108]     hierarchicalCoeffs
[108]     {
[108]         n               ( 3 2 1 );
[108]         delta           0.001;
[108]         order           xyz;
[108]     }
[108]     manualCoeffs
[108]     {
[108]         dataFile        "cellDecomposition";
[108]     }
[108] }
[108] 
[108] Selecting decompositionMethod scotch
[202]  Foam::decompositionMethod::New 
[202] {
[202]     numberOfSubdomains 256;
[202]     method          scotch;
[202]     simpleCoeffs
[202]     {
[202]         n               ( 4 1 1 );
[202]         delta           0.001;
[202]     }
[202]     hierarchicalCoeffs
[202]     {
[202]         n               ( 3 2 1 );
[202]         delta           0.001;
[202]         order           xyz;
[202]     }
[202]     manualCoeffs
[202]     {
[202]         dataFile        "cellDecomposition";
[202]     }
[202] }
[202] 
[202] Selecting decompositionMethod scotch
[35]  Foam::decompositionMethod::New 
[35] {
[35]     numberOfSubdomains 256;
[35]     method          scotch;
[35]     simpleCoeffs
[35]     {
[35]         n               ( 4 1 1 );
[35]         delta           0.001;
[35]     }
[35]     hierarchicalCoeffs
[35]     {
[35]         n               ( 3 2 1 );
[35]         delta           0.001;
[35]         order           xyz;
[35]     }
[35]     manualCoeffs
[35]     {
[35]         dataFile        "cellDecomposition";
[35]     }
[35] }
[35] 
[35] Selecting decompositionMethod scotch
[69]  Foam::decompositionMethod::New 
[69] {
[69]     numberOfSubdomains 256;
[69]     method          scotch;
[69]     simpleCoeffs
[69]     {
[69]         n               ( 4 1 1 );
[69]         delta           0.001;
[69]     }
[69]     hierarchicalCoeffs
[69]     {
[69]         n               ( 3 2 1 );
[69]         delta           0.001;
[69]         order           xyz;
[69]     }
[69]     manualCoeffs
[69]     {
[69]         dataFile        "cellDecomposition";
[69]     }
[69] }
[69] 
[69] Selecting decompositionMethod scotch
[234]  Foam::decompositionMethod::New 
[234] {
[234]     numberOfSubdomains 256;
[234]     method          scotch;
[234]     simpleCoeffs
[234]     {
[234]         n               ( 4 1 1 );
[234]         delta           0.001;
[234]     }
[234]     hierarchicalCoeffs
[234]     {
[234]         n               ( 3 2 1 );
[234]         delta           0.001;
[234]         order           xyz;
[234]     }
[234]     manualCoeffs
[234]     {
[234]         dataFile        "cellDecomposition";
[234]     }
[234] }
[234] 
[234] Selecting decompositionMethod scotch
[161]  Foam::decompositionMethod::New 
[161] {
[161]     numberOfSubdomains 256;
[161]     method          scotch;
[161]     simpleCoeffs
[161]     {
[161]         n               ( 4 1 1 );
[161]         delta           0.001;
[161]     }
[161]     hierarchicalCoeffs
[161]     {
[161]         n               ( 3 2 1 );
[161]         delta           0.001;
[161]         order           xyz;
[161]     }
[161]     manualCoeffs
[161]     {
[161]         dataFile        "cellDecomposition";
[161]     }
[161] }
[161] 
[161] Selecting decompositionMethod scotch
[134]  Foam::decompositionMethod::New 
[134] {
[134]     numberOfSubdomains 256;
[134]     method          scotch;
[134]     simpleCoeffs
[134]     {
[134]         n               ( 4 1 1 );
[134]         delta           0.001;
[134]     }
[134]     hierarchicalCoeffs
[134]     {
[134]         n               ( 3 2 1 );
[134]         delta           0.001;
[134]         order           xyz;
[134]     }
[134]     manualCoeffs
[134]     {
[134]         dataFile        "cellDecomposition";
[134]     }
[134] }
[134] 
[134] Selecting decompositionMethod scotch
[109]  Foam::decompositionMethod::New 
[109] {
[109]     numberOfSubdomains 256;
[109]     method          scotch;
[109]     simpleCoeffs
[109]     {
[109]         n               ( 4 1 1 );
[109]         delta           0.001;
[109]     }
[109]     hierarchicalCoeffs
[109]     {
[109]         n               ( 3 2 1 );
[109]         delta           0.001;
[109]         order           xyz;
[109]     }
[109]     manualCoeffs
[109]     {
[109]         dataFile        "cellDecomposition";
[109]     }
[109] }
[109] 
[109] Selecting decompositionMethod scotch
[203]  Foam::decompositionMethod::New 
[203] {
[203]     numberOfSubdomains 256;
[203]     method          scotch;
[203]     simpleCoeffs
[203]     {
[203]         n               ( 4 1 1 );
[203]         delta           0.001;
[203]     }
[203]     hierarchicalCoeffs
[203]     {
[203]         n               ( 3 2 1 );
[203]         delta           0.001;
[203]         order           xyz;
[203]     }
[203]     manualCoeffs
[203]     {
[203]         dataFile        "cellDecomposition";
[203]     }
[203] }
[203] 
[203] Selecting decompositionMethod scotch
[36]  Foam::decompositionMethod::New 
[36] {
[36]     numberOfSubdomains 256;
[36]     method          scotch;
[36]     simpleCoeffs
[36]     {
[36]         n               ( 4 1 1 );
[36]         delta           0.001;
[36]     }
[36]     hierarchicalCoeffs
[36]     {
[36]         n               ( 3 2 1 );
[36]         delta           0.001;
[36]         order           xyz;
[36]     }
[36]     manualCoeffs
[36]     {
[36]         dataFile        "cellDecomposition";
[36]     }
[36] }
[36] 
[36] Selecting decompositionMethod scotch
[70]  Foam::decompositionMethod::New 
[70] {
[70]     numberOfSubdomains 256;
[70]     method          scotch;
[70]     simpleCoeffs
[70]     {
[70]         n               ( 4 1 1 );
[70]         delta           0.001;
[70]     }
[70]     hierarchicalCoeffs
[70]     {
[70]         n               ( 3 2 1 );
[70]         delta           0.001;
[70]         order           xyz;
[70]     }
[70]     manualCoeffs
[70]     {
[70]         dataFile        "cellDecomposition";
[70]     }
[70] }
[70] 
[70] Selecting decompositionMethod scotch
[235]  Foam::decompositionMethod::New 
[235] {
[235]     numberOfSubdomains 256;
[235]     method          scotch;
[235]     simpleCoeffs
[235]     {
[235]         n               ( 4 1 1 );
[235]         delta           0.001;
[235]     }
[235]     hierarchicalCoeffs
[235]     {
[235]         n               ( 3 2 1 );
[235]         delta           0.001;
[235]         order           xyz;
[235]     }
[235]     manualCoeffs
[235]     {
[235]         dataFile        "cellDecomposition";
[235]     }
[235] }
[235] 
[235] Selecting decompositionMethod scotch
[162]  Foam::decompositionMethod::New 
[162] {
[162]     numberOfSubdomains 256;
[162]     method          scotch;
[162]     simpleCoeffs
[162]     {
[162]         n               ( 4 1 1 );
[162]         delta           0.001;
[162]     }
[162]     hierarchicalCoeffs
[162]     {
[162]         n               ( 3 2 1 );
[162]         delta           0.001;
[162]         order           xyz;
[162]     }
[162]     manualCoeffs
[162]     {
[162]         dataFile        "cellDecomposition";
[162]     }
[162] }
[162] 
[162] Selecting decompositionMethod scotch
[135]  Foam::decompositionMethod::New 
[135] {
[135]     numberOfSubdomains 256;
[135]     method          scotch;
[135]     simpleCoeffs
[135]     {
[135]         n               ( 4 1 1 );
[135]         delta           0.001;
[135]     }
[135]     hierarchicalCoeffs
[135]     {
[135]         n               ( 3 2 1 );
[135]         delta           0.001;
[135]         order           xyz;
[135]     }
[135]     manualCoeffs
[135]     {
[135]         dataFile        "cellDecomposition";
[135]     }
[135] }
[135] 
[135] Selecting decompositionMethod scotch
[110]  Foam::decompositionMethod::New 
[110] {
[110]     numberOfSubdomains 256;
[110]     method          scotch;
[110]     simpleCoeffs
[110]     {
[110]         n               ( 4 1 1 );
[110]         delta           0.001;
[110]     }
[110]     hierarchicalCoeffs
[110]     {
[110]         n               ( 3 2 1 );
[110]         delta           0.001;
[110]         order           xyz;
[110]     }
[110]     manualCoeffs
[110]     {
[110]         dataFile        "cellDecomposition";
[110]     }
[110] }
[110] 
[110] Selecting decompositionMethod scotch
[204]  Foam::decompositionMethod::New 
[204] {
[204]     numberOfSubdomains 256;
[204]     method          scotch;
[204]     simpleCoeffs
[204]     {
[204]         n               ( 4 1 1 );
[204]         delta           0.001;
[204]     }
[204]     hierarchicalCoeffs
[204]     {
[204]         n               ( 3 2 1 );
[204]         delta           0.001;
[204]         order           xyz;
[204]     }
[204]     manualCoeffs
[204]     {
[204]         dataFile        "cellDecomposition";
[204]     }
[204] }
[204] 
[204] Selecting decompositionMethod scotch
[37]  Foam::decompositionMethod::New 
[37] {
[37]     numberOfSubdomains 256;
[37]     method          scotch;
[37]     simpleCoeffs
[37]     {
[37]         n               ( 4 1 1 );
[37]         delta           0.001;
[37]     }
[37]     hierarchicalCoeffs
[37]     {
[37]         n               ( 3 2 1 );
[37]         delta           0.001;
[37]         order           xyz;
[37]     }
[37]     manualCoeffs
[37]     {
[37]         dataFile        "cellDecomposition";
[37]     }
[37] }
[37] 
[37] Selecting decompositionMethod scotch
[71]  Foam::decompositionMethod::New 
[71] {
[71]     numberOfSubdomains 256;
[71]     method          scotch;
[71]     simpleCoeffs
[71]     {
[71]         n               ( 4 1 1 );
[71]         delta           0.001;
[71]     }
[71]     hierarchicalCoeffs
[71]     {
[71]         n               ( 3 2 1 );
[71]         delta           0.001;
[71]         order           xyz;
[71]     }
[71]     manualCoeffs
[71]     {
[71]         dataFile        "cellDecomposition";
[71]     }
[71] }
[71] 
[71] Selecting decompositionMethod scotch
[236]  Foam::decompositionMethod::New 
[236] {
[236]     numberOfSubdomains 256;
[236]     method          scotch;
[236]     simpleCoeffs
[236]     {
[236]         n               ( 4 1 1 );
[236]         delta           0.001;
[236]     }
[236]     hierarchicalCoeffs
[236]     {
[236]         n               ( 3 2 1 );
[236]         delta           0.001;
[236]         order           xyz;
[236]     }
[236]     manualCoeffs
[236]     {
[236]         dataFile        "cellDecomposition";
[236]     }
[236] }
[236] 
[236] Selecting decompositionMethod scotch
[163]  Foam::decompositionMethod::New 
[163] {
[163]     numberOfSubdomains 256;
[163]     method          scotch;
[163]     simpleCoeffs
[163]     {
[163]         n               ( 4 1 1 );
[163]         delta           0.001;
[163]     }
[163]     hierarchicalCoeffs
[163]     {
[163]         n               ( 3 2 1 );
[163]         delta           0.001;
[163]         order           xyz;
[163]     }
[163]     manualCoeffs
[163]     {
[163]         dataFile        "cellDecomposition";
[163]     }
[163] }
[163] 
[163] Selecting decompositionMethod scotch
[136]  Foam::decompositionMethod::New 
[136] {
[136]     numberOfSubdomains 256;
[136]     method          scotch;
[136]     simpleCoeffs
[136]     {
[136]         n               ( 4 1 1 );
[136]         delta           0.001;
[136]     }
[136]     hierarchicalCoeffs
[136]     {
[136]         n               ( 3 2 1 );
[136]         delta           0.001;
[136]         order           xyz;
[136]     }
[136]     manualCoeffs
[136]     {
[136]         dataFile        "cellDecomposition";
[136]     }
[136] }
[136] 
[136] Selecting decompositionMethod scotch
[111]  Foam::decompositionMethod::New 
[111] {
[111]     numberOfSubdomains 256;
[111]     method          scotch;
[111]     simpleCoeffs
[111]     {
[111]         n               ( 4 1 1 );
[111]         delta           0.001;
[111]     }
[111]     hierarchicalCoeffs
[111]     {
[111]         n               ( 3 2 1 );
[111]         delta           0.001;
[111]         order           xyz;
[111]     }
[111]     manualCoeffs
[111]     {
[111]         dataFile        "cellDecomposition";
[111]     }
[111] }
[111] 
[111] Selecting decompositionMethod scotch
[205]  Foam::decompositionMethod::New 
[205] {
[205]     numberOfSubdomains 256;
[205]     method          scotch;
[205]     simpleCoeffs
[205]     {
[205]         n               ( 4 1 1 );
[205]         delta           0.001;
[205]     }
[205]     hierarchicalCoeffs
[205]     {
[205]         n               ( 3 2 1 );
[205]         delta           0.001;
[205]         order           xyz;
[205]     }
[205]     manualCoeffs
[205]     {
[205]         dataFile        "cellDecomposition";
[205]     }
[205] }
[205] 
[205] Selecting decompositionMethod scotch
[38]  Foam::decompositionMethod::New 
[38] {
[38]     numberOfSubdomains 256;
[38]     method          scotch;
[38]     simpleCoeffs
[38]     {
[38]         n               ( 4 1 1 );
[38]         delta           0.001;
[38]     }
[38]     hierarchicalCoeffs
[38]     {
[38]         n               ( 3 2 1 );
[38]         delta           0.001;
[38]         order           xyz;
[38]     }
[38]     manualCoeffs
[38]     {
[38]         dataFile        "cellDecomposition";
[38]     }
[38] }
[38] 
[38] Selecting decompositionMethod scotch
[72]  Foam::decompositionMethod::New 
[72] {
[72]     numberOfSubdomains 256;
[72]     method          scotch;
[72]     simpleCoeffs
[72]     {
[72]         n               ( 4 1 1 );
[72]         delta           0.001;
[72]     }
[72]     hierarchicalCoeffs
[72]     {
[72]         n               ( 3 2 1 );
[72]         delta           0.001;
[72]         order           xyz;
[72]     }
[72]     manualCoeffs
[72]     {
[72]         dataFile        "cellDecomposition";
[72]     }
[72] }
[72] 
[72] Selecting decompositionMethod scotch
[237]  Foam::decompositionMethod::New 
[237] {
[237]     numberOfSubdomains 256;
[237]     method          scotch;
[237]     simpleCoeffs
[237]     {
[237]         n               ( 4 1 1 );
[237]         delta           0.001;
[237]     }
[237]     hierarchicalCoeffs
[237]     {
[237]         n               ( 3 2 1 );
[237]         delta           0.001;
[237]         order           xyz;
[237]     }
[237]     manualCoeffs
[237]     {
[237]         dataFile        "cellDecomposition";
[237]     }
[237] }
[237] 
[237] Selecting decompositionMethod scotch
[164]  Foam::decompositionMethod::New 
[164] {
[164]     numberOfSubdomains 256;
[164]     method          scotch;
[164]     simpleCoeffs
[164]     {
[164]         n               ( 4 1 1 );
[164]         delta           0.001;
[164]     }
[164]     hierarchicalCoeffs
[164]     {
[164]         n               ( 3 2 1 );
[164]         delta           0.001;
[164]         order           xyz;
[164]     }
[164]     manualCoeffs
[164]     {
[164]         dataFile        "cellDecomposition";
[164]     }
[164] }
[164] 
[164] Selecting decompositionMethod scotch
[137]  Foam::decompositionMethod::New 
[137] {
[137]     numberOfSubdomains 256;
[137]     method          scotch;
[137]     simpleCoeffs
[137]     {
[137]         n               ( 4 1 1 );
[137]         delta           0.001;
[137]     }
[137]     hierarchicalCoeffs
[137]     {
[137]         n               ( 3 2 1 );
[137]         delta           0.001;
[137]         order           xyz;
[137]     }
[137]     manualCoeffs
[137]     {
[137]         dataFile        "cellDecomposition";
[137]     }
[137] }
[137] 
[137] Selecting decompositionMethod scotch
[112]  Foam::decompositionMethod::New 
[112] {
[112]     numberOfSubdomains 256;
[112]     method          scotch;
[112]     simpleCoeffs
[112]     {
[112]         n               ( 4 1 1 );
[112]         delta           0.001;
[112]     }
[112]     hierarchicalCoeffs
[112]     {
[112]         n               ( 3 2 1 );
[112]         delta           0.001;
[112]         order           xyz;
[112]     }
[112]     manualCoeffs
[112]     {
[112]         dataFile        "cellDecomposition";
[112]     }
[112] }
[112] 
[112] Selecting decompositionMethod scotch
[206]  Foam::decompositionMethod::New 
[206] {
[206]     numberOfSubdomains 256;
[206]     method          scotch;
[206]     simpleCoeffs
[206]     {
[206]         n               ( 4 1 1 );
[206]         delta           0.001;
[206]     }
[206]     hierarchicalCoeffs
[206]     {
[206]         n               ( 3 2 1 );
[206]         delta           0.001;
[206]         order           xyz;
[206]     }
[206]     manualCoeffs
[206]     {
[206]         dataFile        "cellDecomposition";
[206]     }
[206] }
[206] 
[206] Selecting decompositionMethod scotch
[39]  Foam::decompositionMethod::New 
[39] {
[39]     numberOfSubdomains 256;
[39]     method          scotch;
[39]     simpleCoeffs
[39]     {
[39]         n               ( 4 1 1 );
[39]         delta           0.001;
[39]     }
[39]     hierarchicalCoeffs
[39]     {
[39]         n               ( 3 2 1 );
[39]         delta           0.001;
[39]         order           xyz;
[39]     }
[39]     manualCoeffs
[39]     {
[39]         dataFile        "cellDecomposition";
[39]     }
[39] }
[39] 
[39] Selecting decompositionMethod scotch
[73]  Foam::decompositionMethod::New 
[73] {
[73]     numberOfSubdomains 256;
[73]     method          scotch;
[73]     simpleCoeffs
[73]     {
[73]         n               ( 4 1 1 );
[73]         delta           0.001;
[73]     }
[73]     hierarchicalCoeffs
[73]     {
[73]         n               ( 3 2 1 );
[73]         delta           0.001;
[73]         order           xyz;
[73]     }
[73]     manualCoeffs
[73]     {
[73]         dataFile        "cellDecomposition";
[73]     }
[73] }
[73] 
[73] Selecting decompositionMethod scotch
[238]  Foam::decompositionMethod::New 
[238] {
[238]     numberOfSubdomains 256;
[238]     method          scotch;
[238]     simpleCoeffs
[238]     {
[238]         n               ( 4 1 1 );
[238]         delta           0.001;
[238]     }
[238]     hierarchicalCoeffs
[238]     {
[238]         n               ( 3 2 1 );
[238]         delta           0.001;
[238]         order           xyz;
[238]     }
[238]     manualCoeffs
[238]     {
[238]         dataFile        "cellDecomposition";
[238]     }
[238] }
[238] 
[238] Selecting decompositionMethod scotch
[165]  Foam::decompositionMethod::New 
[165] {
[165]     numberOfSubdomains 256;
[165]     method          scotch;
[165]     simpleCoeffs
[165]     {
[165]         n               ( 4 1 1 );
[165]         delta           0.001;
[165]     }
[165]     hierarchicalCoeffs
[165]     {
[165]         n               ( 3 2 1 );
[165]         delta           0.001;
[165]         order           xyz;
[165]     }
[165]     manualCoeffs
[165]     {
[165]         dataFile        "cellDecomposition";
[165]     }
[165] }
[165] 
[165] Selecting decompositionMethod scotch
[138]  Foam::decompositionMethod::New 
[138] {
[138]     numberOfSubdomains 256;
[138]     method          scotch;
[138]     simpleCoeffs
[138]     {
[138]         n               ( 4 1 1 );
[138]         delta           0.001;
[138]     }
[138]     hierarchicalCoeffs
[138]     {
[138]         n               ( 3 2 1 );
[138]         delta           0.001;
[138]         order           xyz;
[138]     }
[138]     manualCoeffs
[138]     {
[138]         dataFile        "cellDecomposition";
[138]     }
[138] }
[138] 
[138] Selecting decompositionMethod scotch
[113]  Foam::decompositionMethod::New 
[113] {
[113]     numberOfSubdomains 256;
[113]     method          scotch;
[113]     simpleCoeffs
[113]     {
[113]         n               ( 4 1 1 );
[113]         delta           0.001;
[113]     }
[113]     hierarchicalCoeffs
[113]     {
[113]         n               ( 3 2 1 );
[113]         delta           0.001;
[113]         order           xyz;
[113]     }
[113]     manualCoeffs
[113]     {
[113]         dataFile        "cellDecomposition";
[113]     }
[113] }
[113] 
[113] Selecting decompositionMethod scotch
[207]  Foam::decompositionMethod::New 
[207] {
[207]     numberOfSubdomains 256;
[207]     method          scotch;
[207]     simpleCoeffs
[207]     {
[207]         n               ( 4 1 1 );
[207]         delta           0.001;
[207]     }
[207]     hierarchicalCoeffs
[207]     {
[207]         n               ( 3 2 1 );
[207]         delta           0.001;
[207]         order           xyz;
[207]     }
[207]     manualCoeffs
[207]     {
[207]         dataFile        "cellDecomposition";
[207]     }
[207] }
[207] 
[207] Selecting decompositionMethod scotch
[40]  Foam::decompositionMethod::New 
[40] {
[40]     numberOfSubdomains 256;
[40]     method          scotch;
[40]     simpleCoeffs
[40]     {
[40]         n               ( 4 1 1 );
[40]         delta           0.001;
[40]     }
[40]     hierarchicalCoeffs
[40]     {
[40]         n               ( 3 2 1 );
[40]         delta           0.001;
[40]         order           xyz;
[40]     }
[40]     manualCoeffs
[40]     {
[40]         dataFile        "cellDecomposition";
[40]     }
[40] }
[40] 
[40] Selecting decompositionMethod scotch
[74]  Foam::decompositionMethod::New 
[74] {
[74]     numberOfSubdomains 256;
[74]     method          scotch;
[74]     simpleCoeffs
[74]     {
[74]         n               ( 4 1 1 );
[74]         delta           0.001;
[74]     }
[74]     hierarchicalCoeffs
[74]     {
[74]         n               ( 3 2 1 );
[74]         delta           0.001;
[74]         order           xyz;
[74]     }
[74]     manualCoeffs
[74]     {
[74]         dataFile        "cellDecomposition";
[74]     }
[74] }
[74] 
[74] Selecting decompositionMethod scotch
[239]  Foam::decompositionMethod::New 
[239] {
[239]     numberOfSubdomains 256;
[239]     method          scotch;
[239]     simpleCoeffs
[239]     {
[239]         n               ( 4 1 1 );
[239]         delta           0.001;
[239]     }
[239]     hierarchicalCoeffs
[239]     {
[239]         n               ( 3 2 1 );
[239]         delta           0.001;
[239]         order           xyz;
[239]     }
[239]     manualCoeffs
[239]     {
[239]         dataFile        "cellDecomposition";
[239]     }
[239] }
[239] 
[239] Selecting decompositionMethod scotch
[166]  Foam::decompositionMethod::New 
[166] {
[166]     numberOfSubdomains 256;
[166]     method          scotch;
[166]     simpleCoeffs
[166]     {
[166]         n               ( 4 1 1 );
[166]         delta           0.001;
[166]     }
[166]     hierarchicalCoeffs
[166]     {
[166]         n               ( 3 2 1 );
[166]         delta           0.001;
[166]         order           xyz;
[166]     }
[166]     manualCoeffs
[166]     {
[166]         dataFile        "cellDecomposition";
[166]     }
[166] }
[166] 
[166] Selecting decompositionMethod scotch
[139]  Foam::decompositionMethod::New 
[139] {
[139]     numberOfSubdomains 256;
[139]     method          scotch;
[139]     simpleCoeffs
[139]     {
[139]         n               ( 4 1 1 );
[139]         delta           0.001;
[139]     }
[139]     hierarchicalCoeffs
[139]     {
[139]         n               ( 3 2 1 );
[139]         delta           0.001;
[139]         order           xyz;
[139]     }
[139]     manualCoeffs
[139]     {
[139]         dataFile        "cellDecomposition";
[139]     }
[139] }
[139] 
[139] Selecting decompositionMethod scotch
[114]  Foam::decompositionMethod::New 
[114] {
[114]     numberOfSubdomains 256;
[114]     method          scotch;
[114]     simpleCoeffs
[114]     {
[114]         n               ( 4 1 1 );
[114]         delta           0.001;
[114]     }
[114]     hierarchicalCoeffs
[114]     {
[114]         n               ( 3 2 1 );
[114]         delta           0.001;
[114]         order           xyz;
[114]     }
[114]     manualCoeffs
[114]     {
[114]         dataFile        "cellDecomposition";
[114]     }
[114] }
[114] 
[114] Selecting decompositionMethod scotch
[208]  Foam::decompositionMethod::New 
[208] {
[208]     numberOfSubdomains 256;
[208]     method          scotch;
[208]     simpleCoeffs
[208]     {
[208]         n               ( 4 1 1 );
[208]         delta           0.001;
[208]     }
[208]     hierarchicalCoeffs
[208]     {
[208]         n               ( 3 2 1 );
[208]         delta           0.001;
[208]         order           xyz;
[208]     }
[208]     manualCoeffs
[208]     {
[208]         dataFile        "cellDecomposition";
[208]     }
[208] }
[208] 
[208] Selecting decompositionMethod scotch
[41]  Foam::decompositionMethod::New 
[41] {
[41]     numberOfSubdomains 256;
[41]     method          scotch;
[41]     simpleCoeffs
[41]     {
[41]         n               ( 4 1 1 );
[41]         delta           0.001;
[41]     }
[41]     hierarchicalCoeffs
[41]     {
[41]         n               ( 3 2 1 );
[41]         delta           0.001;
[41]         order           xyz;
[41]     }
[41]     manualCoeffs
[41]     {
[41]         dataFile        "cellDecomposition";
[41]     }
[41] }
[41] 
[41] Selecting decompositionMethod scotch
[75]  Foam::decompositionMethod::New 
[75] {
[75]     numberOfSubdomains 256;
[75]     method          scotch;
[75]     simpleCoeffs
[75]     {
[75]         n               ( 4 1 1 );
[75]         delta           0.001;
[75]     }
[75]     hierarchicalCoeffs
[75]     {
[75]         n               ( 3 2 1 );
[75]         delta           0.001;
[75]         order           xyz;
[75]     }
[75]     manualCoeffs
[75]     {
[75]         dataFile        "cellDecomposition";
[75]     }
[75] }
[75] 
[...]
    faces with concavity > 80  degrees                     : 0
    faces with skewness > 4   (internal) or 20  (boundary) : 0
    faces with interpolation weights (0..1)  < 0.02        : 0
    faces with volume ratio of neighbour cells < 0.01      : 0
    faces with face twist < 0.02                           : 0
    faces on cells with determinant < 0.001                : 0
displacementMedialAxis : Successfully moved mesh
displacementMedialAxis : Finished moving mesh ...
truncateDisplacement : Unextruded 1 faces due to non-consecutive vertices being extruded.
truncateDisplacement : Unextruded 0 faces due to stringed edges with inconsistent extrusion.
truncateDisplacement : Unextruded 0 faces due to non-consecutive vertices being extruded.
truncateDisplacement : Unextruded 0 faces due to stringed edges with inconsistent extrusion.

Setting up information for layer truncation ...

Checking mesh with layer ...
Checking faces in error :
    non-orthogonality > 65  degrees                        : 1
    faces with face pyramid volume < 1e-13                 : 0
    faces with face-decomposition tet quality < 1e-15      : 2
    faces with concavity > 80  degrees                     : 0
    faces with skewness > 4   (internal) or 20  (boundary) : 0
    faces with interpolation weights (0..1)  < 0.02        : 0
    faces with volume ratio of neighbour cells < 0.01      : 0
    faces with face twist < 0.02                           : 0
    faces on cells with determinant < 0.001                : 0
Detected 3 illegal faces (concave, zero area or negative cell pyramid volume)
Extruding 141724 out of 183074 faces (77.4135%). Removed extrusion at 3 faces.
Added 141727 out of 183074 cells (77.4151%).


Layer addition iteration 25
--------------------------

Determining displacement for added points according to pointNormal ...
Detected 0 points with point normal pointing through faces.
Reset displacement at 0 points to average of surrounding points.

displacementMedialAxis : Smoothing using Medial Axis ...
displacementMedialAxis : Reducing layer thickness at 522 nodes where thickness to medial axis distance is large 
displacementMedialAxis : Removing isolated regions ...
displacementMedialAxis : Number of isolated points extrusion stopped : 6
displacementMedialAxis : Smoothing field ...
    Iteration 0   residual 4.63835e-05
displacementMedialAxis : Moving mesh ...
displacementMedialAxis : Iteration 0
Moving mesh using displacement scaling : min:1  max:1
Checking faces in error :
    non-orthogonality > 65  degrees                        : 0
    faces with face pyramid volume < 1e-13                 : 0
    faces with face-decomposition tet quality < 1e-15      : 22
    faces with concavity > 80  degrees                     : 0
    faces with skewness > 4   (internal) or 20  (boundary) : 0
    faces with interpolation weights (0..1)  < 0.02        : 0
    faces with volume ratio of neighbour cells < 0.01      : 0
    faces with face twist < 0.02                           : 0
    faces on cells with determinant < 0.001                : 0
displacementMedialAxis : Iteration 1
Moving mesh using displacement scaling : min:0.75  max:1
Checking faces in error :
    non-orthogonality > 65  degrees                        : 0
    faces with face pyramid volume < 1e-13                 : 0
    faces with face-decomposition tet quality < 1e-15      : 12
    faces with concavity > 80  degrees                     : 0
    faces with skewness > 4   (internal) or 20  (boundary) : 0
    faces with interpolation weights (0..1)  < 0.02        : 0
    faces with volume ratio of neighbour cells < 0.01      : 0
    faces with face twist < 0.02                           : 0
    faces on cells with determinant < 0.001                : 0
displacementMedialAxis : Iteration 2
Moving mesh using displacement scaling : min:0.5625  max:1
Checking faces in error :
    non-orthogonality > 65  degrees                        : 0
    faces with face pyramid volume < 1e-13                 : 0
    faces with face-decomposition tet quality < 1e-15      : 7
    faces with concavity > 80  degrees                     : 0
    faces with skewness > 4   (internal) or 20  (boundary) : 0
    faces with interpolation weights (0..1)  < 0.02        : 0
    faces with volume ratio of neighbour cells < 0.01      : 0
    faces with face twist < 0.02                           : 0
    faces on cells with determinant < 0.001                : 0
displacementMedialAxis : Iteration 3
displacementMedialAxis : Displacement scaling for error reduction set to 0.
Moving mesh using displacement scaling : min:0.421875  max:1
Checking faces in error :
    non-orthogonality > 65  degrees                        : 0
    faces with face pyramid volume < 1e-13                 : 0
    faces with face-decomposition tet quality < 1e-15      : 5
    faces with concavity > 80  degrees                     : 0
    faces with skewness > 4   (internal) or 20  (boundary) : 0
    faces with interpolation weights (0..1)  < 0.02        : 0
    faces with volume ratio of neighbour cells < 0.01      : 0
    faces with face twist < 0.02                           : 0
    faces on cells with determinant < 0.001                : 0
displacementMedialAxis : Iteration 4
Moving mesh using displacement scaling : min:0  max:1
Checking faces in error :
    non-orthogonality > 65  degrees                        : 0
    faces with face pyramid volume < 1e-13                 : 0
    faces with face-decomposition tet quality < 1e-15      : 0
    faces with concavity > 80  degrees                     : 0
    faces with skewness > 4   (internal) or 20  (boundary) : 0
    faces with interpolation weights (0..1)  < 0.02        : 0
    faces with volume ratio of neighbour cells < 0.01      : 0
    faces with face twist < 0.02                           : 0
    faces on cells with determinant < 0.001                : 0
displacementMedialAxis : Successfully moved mesh
displacementMedialAxis : Finished moving mesh ...
truncateDisplacement : Unextruded 0 faces due to non-consecutive vertices being extruded.
truncateDisplacement : Unextruded 0 faces due to stringed edges with inconsistent extrusion.

Setting up information for layer truncation ...

Checking mesh with layer ...
Checking faces in error :
    non-orthogonality > 65  degrees                        : 0
    faces with face pyramid volume < 1e-13                 : 0
    faces with face-decomposition tet quality < 1e-15      : 1
    faces with concavity > 80  degrees                     : 0
    faces with skewness > 4   (internal) or 20  (boundary) : 0
    faces with interpolation weights (0..1)  < 0.02        : 0
    faces with volume ratio of neighbour cells < 0.01      : 0
    faces with face twist < 0.02                           : 0
    faces on cells with determinant < 0.001                : 0
Detected 1 illegal faces (concave, zero area or negative cell pyramid volume)
Extruding 141715 out of 183074 faces (77.4086%). Removed extrusion at 1 faces.
Added 141716 out of 183074 cells (77.4091%).


Layer addition iteration 26
--------------------------

Determining displacement for added points according to pointNormal ...
Detected 0 points with point normal pointing through faces.
Reset displacement at 0 points to average of surrounding points.

displacementMedialAxis : Smoothing using Medial Axis ...
displacementMedialAxis : Reducing layer thickness at 522 nodes where thickness to medial axis distance is large 
displacementMedialAxis : Removing isolated regions ...
displacementMedialAxis : Number of isolated points extrusion stopped : 1
displacementMedialAxis : Smoothing field ...
    Iteration 0   residual 4.63818e-05
displacementMedialAxis : Moving mesh ...
displacementMedialAxis : Iteration 0
Moving mesh using displacement scaling : min:1  max:1
Checking faces in error :
    non-orthogonality > 65  degrees                        : 0
    faces with face pyramid volume < 1e-13                 : 0
    faces with face-decomposition tet quality < 1e-15      : 22
    faces with concavity > 80  degrees                     : 0
    faces with skewness > 4   (internal) or 20  (boundary) : 0
    faces with interpolation weights (0..1)  < 0.02        : 0
    faces with volume ratio of neighbour cells < 0.01      : 0
    faces with face twist < 0.02                           : 0
    faces on cells with determinant < 0.001                : 0
displacementMedialAxis : Iteration 1
Moving mesh using displacement scaling : min:0.75  max:1
Checking faces in error :
    non-orthogonality > 65  degrees                        : 0
    faces with face pyramid volume < 1e-13                 : 0
    faces with face-decomposition tet quality < 1e-15      : 12
    faces with concavity > 80  degrees                     : 0
    faces with skewness > 4   (internal) or 20  (boundary) : 0
    faces with interpolation weights (0..1)  < 0.02        : 0
    faces with volume ratio of neighbour cells < 0.01      : 0
    faces with face twist < 0.02                           : 0
    faces on cells with determinant < 0.001                : 0
displacementMedialAxis : Iteration 2
Moving mesh using displacement scaling : min:0.5625  max:1
Checking faces in error :
    non-orthogonality > 65  degrees                        : 0
    faces with face pyramid volume < 1e-13                 : 0
    faces with face-decomposition tet quality < 1e-15      : 7
    faces with concavity > 80  degrees                     : 0
    faces with skewness > 4   (internal) or 20  (boundary) : 0
    faces with interpolation weights (0..1)  < 0.02        : 0
    faces with volume ratio of neighbour cells < 0.01      : 0
    faces with face twist < 0.02                           : 0
    faces on cells with determinant < 0.001                : 0
displacementMedialAxis : Iteration 3
displacementMedialAxis : Displacement scaling for error reduction set to 0.
Moving mesh using displacement scaling : min:0.421875  max:1
Checking faces in error :
    non-orthogonality > 65  degrees                        : 0
    faces with face pyramid volume < 1e-13                 : 0
    faces with face-decomposition tet quality < 1e-15      : 5
    faces with concavity > 80  degrees                     : 0
    faces with skewness > 4   (internal) or 20  (boundary) : 0
    faces with interpolation weights (0..1)  < 0.02        : 0
    faces with volume ratio of neighbour cells < 0.01      : 0
    faces with face twist < 0.02                           : 0
    faces on cells with determinant < 0.001                : 0
displacementMedialAxis : Iteration 4
Moving mesh using displacement scaling : min:0  max:1
Checking faces in error :
    non-orthogonality > 65  degrees                        : 0
    faces with face pyramid volume < 1e-13                 : 0
    faces with face-decomposition tet quality < 1e-15      : 0
    faces with concavity > 80  degrees                     : 0
    faces with skewness > 4   (internal) or 20  (boundary) : 0
    faces with interpolation weights (0..1)  < 0.02        : 0
    faces with volume ratio of neighbour cells < 0.01      : 0
    faces with face twist < 0.02                           : 0
    faces on cells with determinant < 0.001                : 0
displacementMedialAxis : Successfully moved mesh
displacementMedialAxis : Finished moving mesh ...
truncateDisplacement : Unextruded 0 faces due to non-consecutive vertices being extruded.
truncateDisplacement : Unextruded 0 faces due to stringed edges with inconsistent extrusion.

Setting up information for layer truncation ...

Checking mesh with layer ...
Checking faces in error :
    non-orthogonality > 65  degrees                        : 0
    faces with face pyramid volume < 1e-13                 : 0
    faces with face-decomposition tet quality < 1e-15      : 0
    faces with concavity > 80  degrees                     : 0
    faces with skewness > 4   (internal) or 20  (boundary) : 0
    faces with interpolation weights (0..1)  < 0.02        : 0
    faces with volume ratio of neighbour cells < 0.01      : 0
    faces with face twist < 0.02                           : 0
    faces on cells with determinant < 0.001                : 0
Detected 0 illegal faces (concave, zero area or negative cell pyramid volume)
Extruding 141714 out of 183074 faces (77.408%). Removed extrusion at 0 faces.
Added 141714 out of 183074 cells (77.408%).
Edge intersection testing:
    Number of edges             : 5913803
    Number of edges to retest   : 0
    Number of intersected edges : 291190

Doing final balancing
---------------------

Writing 141714 added cells to cellSet addedCells
Writing 0 faces inside added layer to faceSet layerFaces

Writing fields with layer information:
    nSurfaceLayers    : actual number of layers
    thickness         : overall layer thickness
    thicknessFraction : overall layer thickness (fraction of desired thickness)


patch                                            faces    layers   overall thickness
                                                                   [m]       [%]
-----                                            -----    ------   ---       ---
lowerWall                                        15835    0.994    0.0145    96.3    
motorBike_frt-fairing:001%1                      21688    0.711    0.00125   53.2    
motorBike_windshield:002%2                       182      0.934    0.00187   79.9    
motorBike_rr-wh-rim:005%5                        572      0.862    0.00106   45.4    
motorBike_rr-wh-rim:010%10                       1379     0.178    0.000282  12.1    
motorBike_fr-wh-rim:011%11                       1784     0.531    0.000571  24.4    
motorBike_fr-wh-brake-disk:012%12                256      0.996    0.00102   43.8    
motorBike_frame:016-shadow%13                    430      0.509    0.000395  17      
motorBike_rear-susp:014%14                       3667     0.775    0.00109   46.8    
motorBike_rear-susp:014-shadow%15                2104     0.74     0.00106   45.2    
motorBike_frame:016%16                           251      0.442    0.000359  15.5    
motorBike_rr-wh-rim:005-shadow%17                308      0.883    0.00107   45.7    
motorBike_rr-wh-chain-hub:022%22                 461      0.505    0.000449  19.2    
motorBike_rearseat%24                            1370     0.882    0.00175   68.5    
motorBike_frt-fairing%25                         2207     0.879    0.00148   62.2    
motorBike_windshield%26                          1474     0.448    0.000713  30.4    
motorBike_headlights%27                          591      0.978    0.00214   91.2    
motorBike_driversseat%28                         1610     0.77     0.00119   50.9    
motorBike_rear-body%29                           7420     0.879    0.0016    66.1    
motorBike_fuel-tank%30                           3236     0.916    0.0019    77.9    
motorBike_exhaust%31                             8493     0.708    0.00134   54.1    
motorBike_rr-wh-rim%32                           4375     0.877    0.00147   58.5    
motorBike_fr-mud-guard%33                        3036     0.583    0.00076   32.5    
motorBike_fr-wh-rim%34                           2207     0.899    0.00152   65      
motorBike_fr-wh-brake-disk%35                    1754     0.768    0.00077   32.9    
motorBike_fr-brake-caliper%36                    579      0.306    0.00023   9.91    
motorBike_fr-wh-tyre%37                          5024     0.73     0.00134   57.3    
motorBike_hbars%38                               2016     0.222    0.000213  9.14    
motorBike_fr-forks%39                            4351     0.726    0.00133   56.8    
motorBike_chain%40                               1785     0.128    8.89e-05  3.79    
motorBike_rr-wh-tyre%41                          4570     0.799    0.00173   59.3    
motorBike_square-dial%42                         20       1        0.00191   81.4    
motorBike_round-dial%43                          45       0.978    0.00102   43.4    
motorBike_dial-holder%44                         344      0.744    0.000724  31.3    
motorBike_rear-susp%45                           7105     0.782    0.000952  40.7    
motorBike_rear-brake-lights%46                   202      0.48     0.000409  17.8    
motorBike_rear-light-bracket%47                  635      0.833    0.00117   49.8    
motorBike_frame%48                               7652     0.796    0.00134   57.1    
motorBike_rear-mud-guard%49                      2537     0.762    0.00126   53.6    
motorBike_rear-susp-spring-damp%50               431      0.601    0.000642  27.4    
motorBike_fairing-inner-plate%51                 1558     0.811    0.00128   51.6    
motorBike_clutch-housing%52                      3815     0.965    0.00176   74.5    
motorBike_radiator%53                            431      0.151    7.95e-05  3.41    
motorBike_water-pipe%54                          326      0        0         0       
motorBike_water-pump%55                          263      0.38     0.000323  13.9    
motorBike_engine%56                              8717     0.901    0.00154   64.5    
motorBike_rear-shock-link%57                     103      0        0         0       
motorBike_rear-brake-fluid-pot-bracket%58        174      0.586    0.000566  24.2    
motorBike_rear-brake-fluid-pot%59                204      0.515    0.000298  12.8    
motorBike_footpeg%60                             349      0.338    0.000168  7.2     
motorBike_rr-wh-chain-hub%61                     477      0.704    0.000625  26.7    
motorBike_rear-brake-caliper%62                  575      0.374    0.000292  12.5    
motorBike_rider-helmet%65                        1800     0.953    0.00231   79      
motorBike_rider-visor%66                         548      1        0.00231   97.1    
motorBike_rider-boots%67                         3757     0.966    0.00199   84.9    
motorBike_rider-gloves%68                        1213     0.458    0.000759  32.4    
motorBike_rider-body%69                          14289    0.934    0.0022    81      
motorBike_frame:0%70                             141      0.667    0.00104   44.3    
motorBike_frt-fairing:001-shadow%74              13723    0.679    0.00122   51.9    
motorBike_windshield-shadow%75                   1035     0.413    0.000691  29.5    
motorBike_fr-mud-guard-shadow%81                 2069     0.566    0.000749  32.1    
motorBike_fr-wh-brake-disk-shadow%83             917      0.764    0.000752  32.2    
motorBike_rear-mud-guard-shadow%84               1662     0.73     0.00122   52.3    
motorBike_rear-susp-spring-damp-shadow%85        295      0.631    0.000691  29.5    
motorBike_radiator-shadow%86                     242      0.186    9.8e-05   4.18    
motorBike_rear-shock-link-shadow%87              61       0        0         0       
motorBike_rear-brake-fluid-pot-bracket-shadow%88 82       0.646    0.000561  23.9    
motorBike_rr-wh-chain-hub-shadow%89              262      0.706    0.000687  29.3    

Layer mesh : cells:1905030  faces:5913803  points:2126150
Cells per refinement level:
    0	9551
    1	4892
    2	16074
    3	48288
    4	991411
    5	127517
    6	707297
Writing mesh to time constant
Wrote mesh in = 117.04 s.
Layers added in = 117.04 s.
Checking final mesh ...
Checking faces in error :
    non-orthogonality > 65  degrees                        : 0
    faces with face pyramid volume < 1e-13                 : 0
    faces with face-decomposition tet quality < 1e-15      : 0
    faces with concavity > 80  degrees                     : 0
    faces with skewness > 4   (internal) or 20  (boundary) : 0
    faces with interpolation weights (0..1)  < 0.02        : 0
    faces with volume ratio of neighbour cells < 0.01      : 0
    faces with face twist < 0.02                           : 0
    faces on cells with determinant < 0.001                : 0
Finished meshing without any errors
Finished meshing in = 279.67 s.
End

Finalising parallel run
