Cleaning /rds/user/hpcbras1/hpc-work/csd3/cclake-ib-gcc9-ompi3-ucx/openfoam/Openfoam_Mbike_8 case
Running surfaceFeatureExtract on /rds/user/hpcbras1/hpc-work/csd3/cclake-ib-gcc9-ompi3-ucx/openfoam/Openfoam_Mbike_8
Running blockMesh on /rds/user/hpcbras1/hpc-work/csd3/cclake-ib-gcc9-ompi3-ucx/openfoam/Openfoam_Mbike_8
Running decomposePar on /rds/user/hpcbras1/hpc-work/csd3/cclake-ib-gcc9-ompi3-ucx/openfoam/Openfoam_Mbike_8
Running snappyHexMesh in parallel on /rds/user/hpcbras1/hpc-work/csd3/cclake-ib-gcc9-ompi3-ucx/openfoam/Openfoam_Mbike_8 using 256 processes
/*---------------------------------------------------------------------------*\
  =========                 |
  \\      /  F ield         | OpenFOAM: The Open Source CFD Toolbox
   \\    /   O peration     | Website:  https://openfoam.org
    \\  /    A nd           | Version:  7
     \\/     M anipulation  |
\*---------------------------------------------------------------------------*/
Build  : 7
Exec   : /home/hpcbras1/spack/opt/spack/linux-scientific7-skylake_avx512/gcc-9.1.0/openfoam-org-7-dahapwszurcwmfsxldhpukzh3tv4odmy/platforms/linux64GccDPInt32-spack/bin/simpleFoam -parallel
Date   : Oct 14 2020
Time   : 12:05:35
Host   : "cpu-p-295"
PID    : 275074
I/O    : uncollated
Case   : /rds/user/hpcbras1/hpc-work/csd3/cclake-ib-gcc9-ompi3-ucx/openfoam/Openfoam_Mbike_8
nProcs : 256
Slaves : 
255
(
"cpu-p-295.275075"
"cpu-p-295.275076"
"cpu-p-295.275077"
"cpu-p-295.275078"
"cpu-p-295.275079"
"cpu-p-295.275080"
"cpu-p-295.275081"
"cpu-p-295.275082"
"cpu-p-295.275083"
"cpu-p-295.275084"
"cpu-p-295.275085"
"cpu-p-295.275086"
"cpu-p-295.275087"
"cpu-p-295.275088"
"cpu-p-295.275089"
"cpu-p-295.275090"
"cpu-p-295.275091"
"cpu-p-295.275092"
"cpu-p-295.275093"
"cpu-p-295.275094"
"cpu-p-295.275095"
"cpu-p-295.275096"
"cpu-p-295.275097"
"cpu-p-295.275098"
"cpu-p-295.275099"
"cpu-p-295.275100"
"cpu-p-295.275101"
"cpu-p-295.275102"
"cpu-p-295.275103"
"cpu-p-295.275104"
"cpu-p-295.275105"
"cpu-p-296.41175"
"cpu-p-296.41176"
"cpu-p-296.41177"
"cpu-p-296.41178"
"cpu-p-296.41179"
"cpu-p-296.41180"
"cpu-p-296.41181"
"cpu-p-296.41182"
"cpu-p-296.41183"
"cpu-p-296.41184"
"cpu-p-296.41185"
"cpu-p-296.41186"
"cpu-p-296.41187"
"cpu-p-296.41188"
"cpu-p-296.41189"
"cpu-p-296.41190"
"cpu-p-296.41191"
"cpu-p-296.41192"
"cpu-p-296.41193"
"cpu-p-296.41194"
"cpu-p-296.41195"
"cpu-p-296.41196"
"cpu-p-296.41197"
"cpu-p-296.41198"
"cpu-p-296.41199"
"cpu-p-296.41200"
"cpu-p-296.41201"
"cpu-p-296.41202"
"cpu-p-296.41203"
"cpu-p-296.41204"
"cpu-p-296.41205"
"cpu-p-296.41206"
"cpu-p-297.273938"
"cpu-p-297.273939"
"cpu-p-297.273940"
"cpu-p-297.273941"
"cpu-p-297.273942"
"cpu-p-297.273943"
"cpu-p-297.273944"
"cpu-p-297.273945"
"cpu-p-297.273946"
"cpu-p-297.273947"
"cpu-p-297.273948"
"cpu-p-297.273949"
"cpu-p-297.273950"
"cpu-p-297.273951"
"cpu-p-297.273952"
"cpu-p-297.273953"
"cpu-p-297.273954"
"cpu-p-297.273955"
"cpu-p-297.273956"
"cpu-p-297.273957"
"cpu-p-297.273958"
"cpu-p-297.273959"
"cpu-p-297.273960"
"cpu-p-297.273961"
"cpu-p-297.273962"
"cpu-p-297.273963"
"cpu-p-297.273964"
"cpu-p-297.273965"
"cpu-p-297.273966"
"cpu-p-297.273967"
"cpu-p-297.273968"
"cpu-p-297.273969"
"cpu-p-298.244492"
"cpu-p-298.244493"
"cpu-p-298.244494"
"cpu-p-298.244495"
"cpu-p-298.244496"
"cpu-p-298.244497"
"cpu-p-298.244498"
"cpu-p-298.244499"
"cpu-p-298.244500"
"cpu-p-298.244501"
"cpu-p-298.244502"
"cpu-p-298.244503"
"cpu-p-298.244504"
"cpu-p-298.244505"
"cpu-p-298.244506"
"cpu-p-298.244507"
"cpu-p-298.244508"
"cpu-p-298.244509"
"cpu-p-298.244510"
"cpu-p-298.244511"
"cpu-p-298.244512"
"cpu-p-298.244513"
"cpu-p-298.244514"
"cpu-p-298.244515"
"cpu-p-298.244516"
"cpu-p-298.244517"
"cpu-p-298.244518"
"cpu-p-298.244519"
"cpu-p-298.244520"
"cpu-p-298.244521"
"cpu-p-298.244522"
"cpu-p-298.244523"
"cpu-p-299.160188"
"cpu-p-299.160189"
"cpu-p-299.160190"
"cpu-p-299.160191"
"cpu-p-299.160192"
"cpu-p-299.160193"
"cpu-p-299.160194"
"cpu-p-299.160195"
"cpu-p-299.160196"
"cpu-p-299.160197"
"cpu-p-299.160198"
"cpu-p-299.160199"
"cpu-p-299.160200"
"cpu-p-299.160201"
"cpu-p-299.160202"
"cpu-p-299.160203"
"cpu-p-299.160204"
"cpu-p-299.160205"
"cpu-p-299.160206"
"cpu-p-299.160207"
"cpu-p-299.160208"
"cpu-p-299.160209"
"cpu-p-299.160210"
"cpu-p-299.160211"
"cpu-p-299.160212"
"cpu-p-299.160213"
"cpu-p-299.160214"
"cpu-p-299.160215"
"cpu-p-299.160216"
"cpu-p-299.160217"
"cpu-p-299.160218"
"cpu-p-299.160219"
"cpu-p-300.173329"
"cpu-p-300.173330"
"cpu-p-300.173331"
"cpu-p-300.173332"
"cpu-p-300.173333"
"cpu-p-300.173334"
"cpu-p-300.173335"
"cpu-p-300.173336"
"cpu-p-300.173337"
"cpu-p-300.173338"
"cpu-p-300.173339"
"cpu-p-300.173340"
"cpu-p-300.173341"
"cpu-p-300.173342"
"cpu-p-300.173343"
"cpu-p-300.173344"
"cpu-p-300.173345"
"cpu-p-300.173346"
"cpu-p-300.173347"
"cpu-p-300.173348"
"cpu-p-300.173349"
"cpu-p-300.173350"
"cpu-p-300.173351"
"cpu-p-300.173352"
"cpu-p-300.173353"
"cpu-p-300.173354"
"cpu-p-300.173355"
"cpu-p-300.173356"
"cpu-p-300.173357"
"cpu-p-300.173358"
"cpu-p-300.173359"
"cpu-p-300.173360"
"cpu-p-301.164990"
"cpu-p-301.164991"
"cpu-p-301.164992"
"cpu-p-301.164993"
"cpu-p-301.164994"
"cpu-p-301.164995"
"cpu-p-301.164996"
"cpu-p-301.164997"
"cpu-p-301.164998"
"cpu-p-301.164999"
"cpu-p-301.165000"
"cpu-p-301.165001"
"cpu-p-301.165002"
"cpu-p-301.165003"
"cpu-p-301.165004"
"cpu-p-301.165005"
"cpu-p-301.165006"
"cpu-p-301.165007"
"cpu-p-301.165008"
"cpu-p-301.165009"
"cpu-p-301.165010"
"cpu-p-301.165011"
"cpu-p-301.165012"
"cpu-p-301.165013"
"cpu-p-301.165014"
"cpu-p-301.165015"
"cpu-p-301.165016"
"cpu-p-301.165017"
"cpu-p-301.165018"
"cpu-p-301.165019"
"cpu-p-301.165020"
"cpu-p-301.165021"
"cpu-p-302.154033"
"cpu-p-302.154034"
"cpu-p-302.154035"
"cpu-p-302.154036"
"cpu-p-302.154037"
"cpu-p-302.154038"
"cpu-p-302.154039"
"cpu-p-302.154040"
"cpu-p-302.154041"
"cpu-p-302.154042"
"cpu-p-302.154043"
"cpu-p-302.154044"
"cpu-p-302.154045"
"cpu-p-302.154046"
"cpu-p-302.154047"
"cpu-p-302.154048"
"cpu-p-302.154049"
"cpu-p-302.154050"
"cpu-p-302.154051"
"cpu-p-302.154052"
"cpu-p-302.154053"
"cpu-p-302.154054"
"cpu-p-302.154055"
"cpu-p-302.154056"
"cpu-p-302.154057"
"cpu-p-302.154058"
"cpu-p-302.154059"
"cpu-p-302.154060"
"cpu-p-302.154061"
"cpu-p-302.154062"
"cpu-p-302.154063"
"cpu-p-302.154064"
)

Pstream initialized with:
    floatTransfer      : 0
    nProcsSimpleSum    : 0
    commsType          : nonBlocking
    polling iterations : 0
sigFpe : Enabling floating point exception trapping (FOAM_SIGFPE).
fileModificationChecking : Monitoring run-time modified files using timeStampMaster (fileModificationSkew 10)
allowSystemOperations : Allowing user-supplied system call operations

// * * * * * * * * * * * * * * * * * * * * * * * * * * * * * * * * * * * * * //
Create time

Create mesh for time = 0


SIMPLE: No convergence criteria found

Reading field p

Reading field U

Reading/calculating face flux field phi

Selecting incompressible transport model Newtonian
Selecting turbulence model type RAS
Selecting RAS turbulence model kOmegaSST
Selecting patchDistMethod meshWave
RAS
{
    RASModel        kOmegaSST;
    turbulence      on;
    printCoeffs     on;
    alphaK1         0.85;
    alphaK2         1;
    alphaOmega1     0.5;
    alphaOmega2     0.856;
    gamma1          0.555556;
    gamma2          0.44;
    beta1           0.075;
    beta2           0.0828;
    betaStar        0.09;
    a1              0.31;
    b1              1;
    c1              10;
    F3              false;
}

No MRF models present

No finite volume options present

Starting time loop

Reading surface description:
    yNormal

forces forceCoeffs1:
    Not including porosity effects
forceCoeffs forceCoeffs1:
    Not including porosity effects
Time = 1

smoothSolver:  Solving for Ux, Initial residual = 1, Final residual = 0.0855809, No Iterations 14
smoothSolver:  Solving for Uy, Initial residual = 1, Final residual = 0.0947021, No Iterations 12
smoothSolver:  Solving for Uz, Initial residual = 1, Final residual = 0.0879885, No Iterations 13
GAMG:  Solving for p, Initial residual = 1, Final residual = 0.00993983, No Iterations 6
time step continuity errors : sum local = 0.000703523, global = 5.62259e-06, cumulative = 5.62259e-06
smoothSolver:  Solving for omega, Initial residual = 0.0282272, Final residual = 0.00130855, No Iterations 3
bounding omega, min: -1546.87 max: 116023 average: 488.397
smoothSolver:  Solving for k, Initial residual = 1, Final residual = 0.0752176, No Iterations 4
ExecutionTime = 0.34 s  ClockTime = 0 s

forceCoeffs forceCoeffs1 write:
    Cm    = 12.3322
    Cd    = 26.6341
    Cl    = -1.76687
    Cl(f) = 11.4488
    Cl(r) = -13.2157

Time = 2

smoothSolver:  Solving for Ux, Initial residual = 0.10721, Final residual = 0.0106869, No Iterations 11
smoothSolver:  Solving for Uy, Initial residual = 0.517945, Final residual = 0.04584, No Iterations 11
smoothSolver:  Solving for Uz, Initial residual = 0.394852, Final residual = 0.0343405, No Iterations 11
GAMG:  Solving for p, Initial residual = 0.235691, Final residual = 0.000915316, No Iterations 5
time step continuity errors : sum local = 0.0039903, global = -9.17466e-06, cumulative = -3.55207e-06
smoothSolver:  Solving for omega, Initial residual = 1, Final residual = 0.053016, No Iterations 4
smoothSolver:  Solving for k, Initial residual = 0.966973, Final residual = 8.69963e-09, No Iterations 1
ExecutionTime = 0.42 s  ClockTime = 0 s

forceCoeffs forceCoeffs1 write:
    Cm    = 4.73237
    Cd    = 10.8306
    Cl    = -0.380282
    Cl(f) = 4.54223
    Cl(r) = -4.92251

Time = 3

smoothSolver:  Solving for Ux, Initial residual = 0.132238, Final residual = 0.0103244, No Iterations 5
smoothSolver:  Solving for Uy, Initial residual = 0.562161, Final residual = 0.0412245, No Iterations 6
smoothSolver:  Solving for Uz, Initial residual = 0.632983, Final residual = 0.0461846, No Iterations 5
GAMG:  Solving for p, Initial residual = 0.138307, Final residual = 0.000724244, No Iterations 5
time step continuity errors : sum local = 0.00267023, global = 1.55173e-05, cumulative = 1.19652e-05
smoothSolver:  Solving for omega, Initial residual = 0.538475, Final residual = 2.27329e-13, No Iterations 1
bounding omega, min: -6.52461e+07 max: 2.2181e+16 average: 1.07762e+11
smoothSolver:  Solving for k, Initial residual = 0.114435, Final residual = 1.05088e-08, No Iterations 1
ExecutionTime = 0.51 s  ClockTime = 0 s

forceCoeffs forceCoeffs1 write:
    Cm    = 3.01029
    Cd    = 6.72652
    Cl    = -1.08272
    Cl(f) = 2.46893
    Cl(r) = -3.55165

Time = 4

smoothSolver:  Solving for Ux, Initial residual = 0.0566559, Final residual = 0.00453484, No Iterations 6
smoothSolver:  Solving for Uy, Initial residual = 0.453093, Final residual = 0.0362068, No Iterations 6
smoothSolver:  Solving for Uz, Initial residual = 0.460449, Final residual = 0.0456041, No Iterations 5
GAMG:  Solving for p, Initial residual = 0.0766356, Final residual = 0.000308113, No Iterations 5
time step continuity errors : sum local = 0.0013398, global = 2.91976e-06, cumulative = 1.4885e-05
smoothSolver:  Solving for omega, Initial residual = 0.538475, Final residual = 6.6066e-13, No Iterations 1
bounding omega, min: -3.68659e+06 max: 6.65431e+15 average: 3.23288e+10
smoothSolver:  Solving for k, Initial residual = 0.0269294, Final residual = 2.79663e-08, No Iterations 1
ExecutionTime = 0.57 s  ClockTime = 0 s

forceCoeffs forceCoeffs1 write:
    Cm    = 1.3178
    Cd    = 3.19679
    Cl    = -0.759146
    Cl(f) = 0.938224
    Cl(r) = -1.69737

Time = 5

smoothSolver:  Solving for Ux, Initial residual = 0.0251748, Final residual = 0.00228103, No Iterations 7
smoothSolver:  Solving for Uy, Initial residual = 0.357614, Final residual = 0.0285056, No Iterations 7
smoothSolver:  Solving for Uz, Initial residual = 0.32605, Final residual = 0.025279, No Iterations 7
GAMG:  Solving for p, Initial residual = 0.0597948, Final residual = 0.000503286, No Iterations 4
time step continuity errors : sum local = 0.00242366, global = 1.34672e-05, cumulative = 2.83522e-05
smoothSolver:  Solving for omega, Initial residual = 0.538475, Final residual = 2.35632e-12, No Iterations 1
bounding omega, min: -1.42489e+06 max: 1.99629e+15 average: 9.69865e+09
smoothSolver:  Solving for k, Initial residual = 0.00694312, Final residual = 8.22094e-08, No Iterations 1
ExecutionTime = 0.64 s  ClockTime = 0 s

forceCoeffs forceCoeffs1 write:
    Cm    = 0.682313
    Cd    = 1.71386
    Cl    = -0.380187
    Cl(f) = 0.492219
    Cl(r) = -0.872406

Time = 6

smoothSolver:  Solving for Ux, Initial residual = 0.0178478, Final residual = 0.00172027, No Iterations 7
smoothSolver:  Solving for Uy, Initial residual = 0.307875, Final residual = 0.027087, No Iterations 7
smoothSolver:  Solving for Uz, Initial residual = 0.259599, Final residual = 0.020653, No Iterations 7
GAMG:  Solving for p, Initial residual = 0.0523054, Final residual = 0.000429937, No Iterations 4
time step continuity errors : sum local = 0.00199078, global = 1.81088e-05, cumulative = 4.64609e-05
smoothSolver:  Solving for omega, Initial residual = 0.538475, Final residual = 8.28385e-12, No Iterations 1
bounding omega, min: -882879 max: 5.98888e+14 average: 2.9096e+09
smoothSolver:  Solving for k, Initial residual = 0.00185735, Final residual = 2.40931e-07, No Iterations 1
ExecutionTime = 0.72 s  ClockTime = 0 s

forceCoeffs forceCoeffs1 write:
    Cm    = 0.428002
    Cd    = 1.0857
    Cl    = -0.156338
    Cl(f) = 0.349833
    Cl(r) = -0.506171

Time = 7

smoothSolver:  Solving for Ux, Initial residual = 0.0137829, Final residual = 0.00111508, No Iterations 8
smoothSolver:  Solving for Uy, Initial residual = 0.261032, Final residual = 0.0250193, No Iterations 7
smoothSolver:  Solving for Uz, Initial residual = 0.221525, Final residual = 0.0191942, No Iterations 7
GAMG:  Solving for p, Initial residual = 0.0477671, Final residual = 0.000368201, No Iterations 4
time step continuity errors : sum local = 0.00164758, global = 2.10805e-05, cumulative = 6.75415e-05
smoothSolver:  Solving for omega, Initial residual = 0.538475, Final residual = 2.90778e-11, No Iterations 1
bounding omega, min: -4512.38 max: 1.79666e+14 average: 8.72881e+08
smoothSolver:  Solving for k, Initial residual = 0.000514773, Final residual = 7.37289e-07, No Iterations 1
ExecutionTime = 0.78 s  ClockTime = 0 s

forceCoeffs forceCoeffs1 write:
    Cm    = 0.332214
    Cd    = 0.806141
    Cl    = -0.0607964
    Cl(f) = 0.301816
    Cl(r) = -0.362612

Time = 8

smoothSolver:  Solving for Ux, Initial residual = 0.01149, Final residual = 0.000957885, No Iterations 8
smoothSolver:  Solving for Uy, Initial residual = 0.227032, Final residual = 0.0224449, No Iterations 7
smoothSolver:  Solving for Uz, Initial residual = 0.201903, Final residual = 0.0183805, No Iterations 7
GAMG:  Solving for p, Initial residual = 0.044815, Final residual = 0.000330204, No Iterations 4
time step continuity errors : sum local = 0.00142271, global = 1.18532e-05, cumulative = 7.93946e-05
smoothSolver:  Solving for omega, Initial residual = 0.538475, Final residual = 9.29306e-11, No Iterations 1
bounding omega, min: -26017.8 max: 5.38999e+13 average: 2.61866e+08
smoothSolver:  Solving for k, Initial residual = 0.000149959, Final residual = 2.30554e-06, No Iterations 1
ExecutionTime = 0.84 s  ClockTime = 1 s

forceCoeffs forceCoeffs1 write:
    Cm    = 0.294061
    Cd    = 0.676994
    Cl    = -0.0299828
    Cl(f) = 0.27907
    Cl(r) = -0.309053

Time = 9

smoothSolver:  Solving for Ux, Initial residual = 0.00994325, Final residual = 0.000858053, No Iterations 8
smoothSolver:  Solving for Uy, Initial residual = 0.19719, Final residual = 0.015587, No Iterations 8
smoothSolver:  Solving for Uz, Initial residual = 0.19748, Final residual = 0.0185683, No Iterations 7
GAMG:  Solving for p, Initial residual = 0.042787, Final residual = 0.000313332, No Iterations 4
time step continuity errors : sum local = 0.00130638, global = -6.33977e-07, cumulative = 7.87607e-05
smoothSolver:  Solving for omega, Initial residual = 0.538475, Final residual = 2.82265e-10, No Iterations 1
bounding omega, min: -50272.1 max: 1.617e+13 average: 7.85609e+07
smoothSolver:  Solving for k, Initial residual = 5.84677e-05, Final residual = 3.49835e-06, No Iterations 2
ExecutionTime = 0.89 s  ClockTime = 1 s

forceCoeffs forceCoeffs1 write:
    Cm    = 0.287511
    Cd    = 0.625791
    Cl    = -0.0564579
    Cl(f) = 0.259282
    Cl(r) = -0.31574

Time = 10

smoothSolver:  Solving for Ux, Initial residual = 0.0088316, Final residual = 0.000792006, No Iterations 8
smoothSolver:  Solving for Uy, Initial residual = 0.177879, Final residual = 0.0145123, No Iterations 8
smoothSolver:  Solving for Uz, Initial residual = 0.191267, Final residual = 0.0190637, No Iterations 7
GAMG:  Solving for p, Initial residual = 0.0411515, Final residual = 0.000301023, No Iterations 4
time step continuity errors : sum local = 0.00121283, global = -6.63301e-06, cumulative = 7.21277e-05
smoothSolver:  Solving for omega, Initial residual = 0.538475, Final residual = 8.52109e-10, No Iterations 1
bounding omega, min: -4636.52 max: 4.85099e+12 average: 2.35694e+07
smoothSolver:  Solving for k, Initial residual = 6.55213e-05, Final residual = 5.39131e-06, No Iterations 3
ExecutionTime = 0.95 s  ClockTime = 1 s

forceCoeffs forceCoeffs1 write:
    Cm    = 0.256358
    Cd    = 0.542664
    Cl    = -0.0413596
    Cl(f) = 0.235678
    Cl(r) = -0.277038

Time = 11

smoothSolver:  Solving for Ux, Initial residual = 0.00799498, Final residual = 0.000747797, No Iterations 8
smoothSolver:  Solving for Uy, Initial residual = 0.163701, Final residual = 0.0137558, No Iterations 8
smoothSolver:  Solving for Uz, Initial residual = 0.188464, Final residual = 0.0151952, No Iterations 8
GAMG:  Solving for p, Initial residual = 0.0400285, Final residual = 0.000288371, No Iterations 4
time step continuity errors : sum local = 0.00111988, global = -9.41744e-06, cumulative = 6.27102e-05
smoothSolver:  Solving for omega, Initial residual = 0.538474, Final residual = 2.45864e-09, No Iterations 1
bounding omega, min: -1404.33 max: 1.4553e+12 average: 7.07181e+06
smoothSolver:  Solving for k, Initial residual = 0.000172883, Final residual = 1.6693e-05, No Iterations 3
bounding k, min: -1.80762e-05 max: 423.407 average: 0.52518
ExecutionTime = 1.01 s  ClockTime = 1 s

forceCoeffs forceCoeffs1 write:
    Cm    = 0.243139
    Cd    = 0.503951
    Cl    = -0.0527808
    Cl(f) = 0.216749
    Cl(r) = -0.26953

Time = 12

smoothSolver:  Solving for Ux, Initial residual = 0.00728932, Final residual = 0.000724979, No Iterations 8
smoothSolver:  Solving for Uy, Initial residual = 0.151859, Final residual = 0.0135042, No Iterations 8
smoothSolver:  Solving for Uz, Initial residual = 0.17508, Final residual = 0.015264, No Iterations 8
GAMG:  Solving for p, Initial residual = 0.039081, Final residual = 0.000276223, No Iterations 4
time step continuity errors : sum local = 0.00103597, global = -8.66794e-06, cumulative = 5.40423e-05
smoothSolver:  Solving for omega, Initial residual = 0.538474, Final residual = 6.14753e-09, No Iterations 1
bounding omega, min: -250266 max: 4.36589e+11 average: 2.12248e+06
smoothSolver:  Solving for k, Initial residual = 0.000551666, Final residual = 5.17537e-05, No Iterations 3
bounding k, min: -2.8712e-05 max: 585.924 average: 0.544005
ExecutionTime = 1.06 s  ClockTime = 1 s

forceCoeffs forceCoeffs1 write:
    Cm    = 0.229284
    Cd    = 0.481416
    Cl    = -0.0412112
    Cl(f) = 0.208679
    Cl(r) = -0.24989

Time = 13

smoothSolver:  Solving for Ux, Initial residual = 0.00701149, Final residual = 0.00056827, No Iterations 9
smoothSolver:  Solving for Uy, Initial residual = 0.144508, Final residual = 0.0132743, No Iterations 8
smoothSolver:  Solving for Uz, Initial residual = 0.167258, Final residual = 0.014952, No Iterations 8
GAMG:  Solving for p, Initial residual = 0.0383406, Final residual = 0.000262727, No Iterations 4
time step continuity errors : sum local = 0.00095062, global = -5.59155e-06, cumulative = 4.84507e-05
smoothSolver:  Solving for omega, Initial residual = 0.538472, Final residual = 1.57265e-08, No Iterations 1
bounding omega, min: -1313.48 max: 1.30977e+11 average: 637647
smoothSolver:  Solving for k, Initial residual = 0.00150275, Final residual = 0.000140054, No Iterations 3
bounding k, min: -2.14083e-05 max: 315.391 average: 0.560281
ExecutionTime = 1.12 s  ClockTime = 1 s

forceCoeffs forceCoeffs1 write:
    Cm    = 0.211745
    Cd    = 0.455336
    Cl    = -0.0295198
    Cl(f) = 0.196985
    Cl(r) = -0.226505

Time = 14

smoothSolver:  Solving for Ux, Initial residual = 0.00665111, Final residual = 0.000559949, No Iterations 9
smoothSolver:  Solving for Uy, Initial residual = 0.136781, Final residual = 0.0131614, No Iterations 8
smoothSolver:  Solving for Uz, Initial residual = 0.157119, Final residual = 0.0147537, No Iterations 8
GAMG:  Solving for p, Initial residual = 0.0377983, Final residual = 0.000254134, No Iterations 4
time step continuity errors : sum local = 0.000881125, global = -4.08207e-06, cumulative = 4.43687e-05
smoothSolver:  Solving for omega, Initial residual = 0.538466, Final residual = 4.8244e-08, No Iterations 1
bounding omega, min: -669.303 max: 3.9293e+10 average: 192157
smoothSolver:  Solving for k, Initial residual = 0.00311426, Final residual = 0.000289258, No Iterations 3
bounding k, min: -1.29634e-07 max: 409.453 average: 0.574407
ExecutionTime = 1.22 s  ClockTime = 1 s

forceCoeffs forceCoeffs1 write:
    Cm    = 0.199106
    Cd    = 0.444074
    Cl    = -0.0171905
    Cl(f) = 0.190511
    Cl(r) = -0.207702

Time = 15

smoothSolver:  Solving for Ux, Initial residual = 0.00632375, Final residual = 0.00055459, No Iterations 9
smoothSolver:  Solving for Uy, Initial residual = 0.12763, Final residual = 0.0101474, No Iterations 9
smoothSolver:  Solving for Uz, Initial residual = 0.1473, Final residual = 0.0144709, No Iterations 8
GAMG:  Solving for p, Initial residual = 0.0372919, Final residual = 0.000256552, No Iterations 4
time step continuity errors : sum local = 0.000851158, global = -2.97309e-06, cumulative = 4.13956e-05
smoothSolver:  Solving for omega, Initial residual = 0.538447, Final residual = 1.90742e-07, No Iterations 1
bounding omega, min: -33991 max: 1.17879e+10 average: 58478
smoothSolver:  Solving for k, Initial residual = 0.00467631, Final residual = 0.00043367, No Iterations 3
bounding k, min: -3.13901e-06 max: 702.616 average: 0.58618
ExecutionTime = 1.37 s  ClockTime = 1 s

forceCoeffs forceCoeffs1 write:
    Cm    = 0.18929
    Cd    = 0.438342
    Cl    = -0.00396021
    Cl(f) = 0.18731
    Cl(r) = -0.19127

Time = 16

smoothSolver:  Solving for Ux, Initial residual = 0.0061192, Final residual = 0.000551494, No Iterations 9
smoothSolver:  Solving for Uy, Initial residual = 0.118632, Final residual = 0.00974716, No Iterations 9
smoothSolver:  Solving for Uz, Initial residual = 0.13993, Final residual = 0.0113643, No Iterations 9
GAMG:  Solving for p, Initial residual = 0.0369191, Final residual = 0.000264451, No Iterations 4
time step continuity errors : sum local = 0.000838712, global = -1.60888e-06, cumulative = 3.97867e-05
smoothSolver:  Solving for omega, Initial residual = 0.53838, Final residual = 7.18309e-07, No Iterations 1
bounding omega, min: -39.7321 max: 3.53637e+09 average: 18348.2
smoothSolver:  Solving for k, Initial residual = 0.00547373, Final residual = 0.000512023, No Iterations 3
bounding k, min: -1.4685e-07 max: 576.147 average: 0.59604
ExecutionTime = 1.51 s  ClockTime = 1 s

forceCoeffs forceCoeffs1 write:
    Cm    = 0.177756
    Cd    = 0.427433
    Cl    = 0.00833635
    Cl(f) = 0.181924
    Cl(r) = -0.173588

Time = 17

smoothSolver:  Solving for Ux, Initial residual = 0.00599526, Final residual = 0.000551319, No Iterations 9
smoothSolver:  Solving for Uy, Initial residual = 0.110784, Final residual = 0.00930959, No Iterations 9
smoothSolver:  Solving for Uz, Initial residual = 0.134876, Final residual = 0.0112242, No Iterations 9
GAMG:  Solving for p, Initial residual = 0.0367549, Final residual = 0.000262756, No Iterations 4
time step continuity errors : sum local = 0.000794113, global = -3.83405e-07, cumulative = 3.94033e-05
smoothSolver:  Solving for omega, Initial residual = 0.538147, Final residual = 2.49581e-06, No Iterations 1
bounding omega, min: -4922.43 max: 1.06091e+09 average: 6286.57
smoothSolver:  Solving for k, Initial residual = 0.00577281, Final residual = 0.000551195, No Iterations 3
bounding k, min: -5.98666e-09 max: 287.932 average: 0.603501
ExecutionTime = 1.6 s  ClockTime = 1 s

forceCoeffs forceCoeffs1 write:
    Cm    = 0.172024
    Cd    = 0.427442
    Cl    = 0.014129
    Cl(f) = 0.179089
    Cl(r) = -0.16496

Time = 18

smoothSolver:  Solving for Ux, Initial residual = 0.00582367, Final residual = 0.000546657, No Iterations 9
smoothSolver:  Solving for Uy, Initial residual = 0.105059, Final residual = 0.0090473, No Iterations 9
smoothSolver:  Solving for Uz, Initial residual = 0.130612, Final residual = 0.0111914, No Iterations 9
GAMG:  Solving for p, Initial residual = 0.0364814, Final residual = 0.000259378, No Iterations 4
time step continuity errors : sum local = 0.000745795, global = 4.8308e-07, cumulative = 3.98864e-05
smoothSolver:  Solving for omega, Initial residual = 0.537239, Final residual = 8.22821e-06, No Iterations 1
smoothSolver:  Solving for k, Initial residual = 0.00586798, Final residual = 0.000578157, No Iterations 3
bounding k, min: -1.99553e-07 max: 208.785 average: 0.609332
ExecutionTime = 1.67 s  ClockTime = 1 s

forceCoeffs forceCoeffs1 write:
    Cm    = 0.164387
    Cd    = 0.416038
    Cl    = 0.0214978
    Cl(f) = 0.175135
    Cl(r) = -0.153638

Time = 19

smoothSolver:  Solving for Ux, Initial residual = 0.00558582, Final residual = 0.000540521, No Iterations 9
smoothSolver:  Solving for Uy, Initial residual = 0.100491, Final residual = 0.00887826, No Iterations 9
smoothSolver:  Solving for Uz, Initial residual = 0.126305, Final residual = 0.0112378, No Iterations 9
GAMG:  Solving for p, Initial residual = 0.0363146, Final residual = 0.000256298, No Iterations 4
time step continuity errors : sum local = 0.00070236, global = 1.0207e-06, cumulative = 4.09071e-05
smoothSolver:  Solving for omega, Initial residual = 0.532793, Final residual = 2.80808e-05, No Iterations 1
smoothSolver:  Solving for k, Initial residual = 0.00592596, Final residual = 0.000296715, No Iterations 4
bounding k, min: -7.35848e-08 max: 242.46 average: 0.616392
ExecutionTime = 1.73 s  ClockTime = 1 s

forceCoeffs forceCoeffs1 write:
    Cm    = 0.162584
    Cd    = 0.413407
    Cl    = 0.0185507
    Cl(f) = 0.171859
    Cl(r) = -0.153309

Time = 20

smoothSolver:  Solving for Ux, Initial residual = 0.00539355, Final residual = 0.000533104, No Iterations 9
smoothSolver:  Solving for Uy, Initial residual = 0.0979642, Final residual = 0.00889406, No Iterations 9
smoothSolver:  Solving for Uz, Initial residual = 0.120099, Final residual = 0.0110391, No Iterations 9
GAMG:  Solving for p, Initial residual = 0.0359194, Final residual = 0.000260564, No Iterations 4
time step continuity errors : sum local = 0.000684668, global = 1.00706e-06, cumulative = 4.19141e-05
smoothSolver:  Solving for omega, Initial residual = 0.504042, Final residual = 0.000101953, No Iterations 1
smoothSolver:  Solving for k, Initial residual = 0.00598973, Final residual = 0.000308101, No Iterations 4
bounding k, min: -7.97179e-08 max: 314.618 average: 0.624258
ExecutionTime = 1.79 s  ClockTime = 2 s

forceCoeffs forceCoeffs1 write:
    Cm    = 0.162504
    Cd    = 0.412001
    Cl    = 0.0190631
    Cl(f) = 0.172036
    Cl(r) = -0.152973

Time = 21

smoothSolver:  Solving for Ux, Initial residual = 0.00519196, Final residual = 0.000420937, No Iterations 10
smoothSolver:  Solving for Uy, Initial residual = 0.0982084, Final residual = 0.00911759, No Iterations 9
smoothSolver:  Solving for Uz, Initial residual = 0.11333, Final residual = 0.0106922, No Iterations 9
GAMG:  Solving for p, Initial residual = 0.0352315, Final residual = 0.000266556, No Iterations 4
time step continuity errors : sum local = 0.000674122, global = 1.61835e-06, cumulative = 4.35325e-05
smoothSolver:  Solving for omega, Initial residual = 0.339842, Final residual = 0.000302093, No Iterations 1
smoothSolver:  Solving for k, Initial residual = 0.00601436, Final residual = 0.000318363, No Iterations 4
bounding k, min: -2.32186e-07 max: 600.714 average: 0.632383
ExecutionTime = 1.85 s  ClockTime = 2 s

forceCoeffs forceCoeffs1 write:
    Cm    = 0.16542
    Cd    = 0.415259
    Cl    = 0.0149225
    Cl(f) = 0.172881
    Cl(r) = -0.157959

Time = 22

smoothSolver:  Solving for Ux, Initial residual = 0.00500978, Final residual = 0.000412878, No Iterations 10
smoothSolver:  Solving for Uy, Initial residual = 0.100451, Final residual = 0.00952104, No Iterations 9
smoothSolver:  Solving for Uz, Initial residual = 0.107227, Final residual = 0.0103299, No Iterations 9
GAMG:  Solving for p, Initial residual = 0.0343304, Final residual = 0.000269405, No Iterations 4
time step continuity errors : sum local = 0.000660763, global = 2.28634e-06, cumulative = 4.58188e-05
smoothSolver:  Solving for omega, Initial residual = 0.0795521, Final residual = 0.000407607, No Iterations 1
smoothSolver:  Solving for k, Initial residual = 0.00608304, Final residual = 0.000328062, No Iterations 4
ExecutionTime = 1.91 s  ClockTime = 2 s

forceCoeffs forceCoeffs1 write:
    Cm    = 0.169036
    Cd    = 0.420951
    Cl    = 0.0112541
    Cl(f) = 0.174663
    Cl(r) = -0.163408

Time = 23

smoothSolver:  Solving for Ux, Initial residual = 0.00483653, Final residual = 0.000404282, No Iterations 10
smoothSolver:  Solving for Uy, Initial residual = 0.102752, Final residual = 0.00991497, No Iterations 9
smoothSolver:  Solving for Uz, Initial residual = 0.101159, Final residual = 0.00991419, No Iterations 9
GAMG:  Solving for p, Initial residual = 0.0333439, Final residual = 0.000264976, No Iterations 4
time step continuity errors : sum local = 0.000631372, global = 2.50184e-06, cumulative = 4.83206e-05
smoothSolver:  Solving for omega, Initial residual = 0.00947987, Final residual = 0.000359436, No Iterations 1
smoothSolver:  Solving for k, Initial residual = 0.00605368, Final residual = 0.000336959, No Iterations 4
ExecutionTime = 1.97 s  ClockTime = 2 s

forceCoeffs forceCoeffs1 write:
    Cm    = 0.171327
    Cd    = 0.421139
    Cl    = 0.00626368
    Cl(f) = 0.174459
    Cl(r) = -0.168195

Time = 24

smoothSolver:  Solving for Ux, Initial residual = 0.00465845, Final residual = 0.000396834, No Iterations 10
smoothSolver:  Solving for Uy, Initial residual = 0.103579, Final residual = 0.0102056, No Iterations 9
smoothSolver:  Solving for Uz, Initial residual = 0.0945509, Final residual = 0.00760286, No Iterations 10
GAMG:  Solving for p, Initial residual = 0.0323769, Final residual = 0.000259825, No Iterations 4
time step continuity errors : sum local = 0.000603188, global = 1.67826e-06, cumulative = 4.99989e-05
smoothSolver:  Solving for omega, Initial residual = 0.00161087, Final residual = 0.000134241, No Iterations 2
smoothSolver:  Solving for k, Initial residual = 0.00605626, Final residual = 0.000341095, No Iterations 4
ExecutionTime = 2.02 s  ClockTime = 2 s

forceCoeffs forceCoeffs1 write:
    Cm    = 0.172725
    Cd    = 0.421621
    Cl    = 0.00310468
    Cl(f) = 0.174278
    Cl(r) = -0.171173

Time = 25

smoothSolver:  Solving for Ux, Initial residual = 0.00450393, Final residual = 0.000388641, No Iterations 10
smoothSolver:  Solving for Uy, Initial residual = 0.101162, Final residual = 0.00813212, No Iterations 10
smoothSolver:  Solving for Uz, Initial residual = 0.0883206, Final residual = 0.00718772, No Iterations 10
GAMG:  Solving for p, Initial residual = 0.0313485, Final residual = 0.00025021, No Iterations 4
time step continuity errors : sum local = 0.000566072, global = 5.93841e-07, cumulative = 5.05927e-05
smoothSolver:  Solving for omega, Initial residual = 0.000735804, Final residual = 5.58802e-05, No Iterations 3
smoothSolver:  Solving for k, Initial residual = 0.00591651, Final residual = 0.000337697, No Iterations 4
ExecutionTime = 2.08 s  ClockTime = 2 s

forceCoeffs forceCoeffs1 write:
    Cm    = 0.17293
    Cd    = 0.420454
    Cl    = 0.00436817
    Cl(f) = 0.175114
    Cl(r) = -0.170746

Time = 26

smoothSolver:  Solving for Ux, Initial residual = 0.0043538, Final residual = 0.000379654, No Iterations 10
smoothSolver:  Solving for Uy, Initial residual = 0.095099, Final residual = 0.00779661, No Iterations 10
smoothSolver:  Solving for Uz, Initial residual = 0.0825664, Final residual = 0.00682366, No Iterations 10
GAMG:  Solving for p, Initial residual = 0.0303872, Final residual = 0.000242109, No Iterations 4
time step continuity errors : sum local = 0.000534937, global = -4.35156e-07, cumulative = 5.01576e-05
smoothSolver:  Solving for omega, Initial residual = 0.00057461, Final residual = 5.03707e-05, No Iterations 3
smoothSolver:  Solving for k, Initial residual = 0.00585636, Final residual = 0.00033753, No Iterations 4
ExecutionTime = 2.15 s  ClockTime = 2 s

forceCoeffs forceCoeffs1 write:
    Cm    = 0.172787
    Cd    = 0.420819
    Cl    = 0.00949441
    Cl(f) = 0.177534
    Cl(r) = -0.16804

Time = 27

smoothSolver:  Solving for Ux, Initial residual = 0.00420133, Final residual = 0.000370726, No Iterations 10
smoothSolver:  Solving for Uy, Initial residual = 0.0905147, Final residual = 0.00754082, No Iterations 10
smoothSolver:  Solving for Uz, Initial residual = 0.0775834, Final residual = 0.00649008, No Iterations 10
GAMG:  Solving for p, Initial residual = 0.0294715, Final residual = 0.000238084, No Iterations 4
time step continuity errors : sum local = 0.000513556, global = -2.3463e-06, cumulative = 4.78113e-05
smoothSolver:  Solving for omega, Initial residual = 0.000520675, Final residual = 4.66384e-05, No Iterations 3
smoothSolver:  Solving for k, Initial residual = 0.00582532, Final residual = 0.000337134, No Iterations 4
ExecutionTime = 2.2 s  ClockTime = 2 s

forceCoeffs forceCoeffs1 write:
    Cm    = 0.172444
    Cd    = 0.421921
    Cl    = 0.0165492
    Cl(f) = 0.180719
    Cl(r) = -0.164169

Time = 28

smoothSolver:  Solving for Ux, Initial residual = 0.0040461, Final residual = 0.000359926, No Iterations 10
smoothSolver:  Solving for Uy, Initial residual = 0.0871011, Final residual = 0.00733794, No Iterations 10
smoothSolver:  Solving for Uz, Initial residual = 0.0731789, Final residual = 0.00618404, No Iterations 10
GAMG:  Solving for p, Initial residual = 0.0286731, Final residual = 0.000236203, No Iterations 4
time step continuity errors : sum local = 0.000497098, global = -4.12893e-06, cumulative = 4.36824e-05
smoothSolver:  Solving for omega, Initial residual = 0.000485605, Final residual = 4.38358e-05, No Iterations 3
smoothSolver:  Solving for k, Initial residual = 0.00575731, Final residual = 0.000335191, No Iterations 4
ExecutionTime = 2.26 s  ClockTime = 2 s

forceCoeffs forceCoeffs1 write:
    Cm    = 0.17194
    Cd    = 0.422561
    Cl    = 0.0238287
    Cl(f) = 0.183854
    Cl(r) = -0.160026

Time = 29

smoothSolver:  Solving for Ux, Initial residual = 0.00389098, Final residual = 0.000345561, No Iterations 10
smoothSolver:  Solving for Uy, Initial residual = 0.0844079, Final residual = 0.0071856, No Iterations 10
smoothSolver:  Solving for Uz, Initial residual = 0.0693169, Final residual = 0.00587313, No Iterations 10
GAMG:  Solving for p, Initial residual = 0.0280281, Final residual = 0.000225769, No Iterations 4
time step continuity errors : sum local = 0.000462403, global = -6.15444e-06, cumulative = 3.75279e-05
smoothSolver:  Solving for omega, Initial residual = 0.000464012, Final residual = 4.18947e-05, No Iterations 3
smoothSolver:  Solving for k, Initial residual = 0.00567241, Final residual = 0.00033189, No Iterations 4
ExecutionTime = 2.32 s  ClockTime = 2 s

forceCoeffs forceCoeffs1 write:
    Cm    = 0.171114
    Cd    = 0.421067
    Cl    = 0.0302098
    Cl(f) = 0.186219
    Cl(r) = -0.156009

Time = 30

smoothSolver:  Solving for Ux, Initial residual = 0.00374217, Final residual = 0.000329676, No Iterations 10
smoothSolver:  Solving for Uy, Initial residual = 0.0819258, Final residual = 0.00704808, No Iterations 10
smoothSolver:  Solving for Uz, Initial residual = 0.0662534, Final residual = 0.0056319, No Iterations 10
GAMG:  Solving for p, Initial residual = 0.027617, Final residual = 0.000217467, No Iterations 4
time step continuity errors : sum local = 0.000434011, global = -7.06944e-06, cumulative = 3.04585e-05
smoothSolver:  Solving for omega, Initial residual = 0.000442237, Final residual = 4.01476e-05, No Iterations 3
smoothSolver:  Solving for k, Initial residual = 0.00556222, Final residual = 0.000327799, No Iterations 4
ExecutionTime = 2.38 s  ClockTime = 2 s

forceCoeffs forceCoeffs1 write:
    Cm    = 0.170824
    Cd    = 0.418951
    Cl    = 0.0357639
    Cl(f) = 0.188706
    Cl(r) = -0.152942

Time = 31

smoothSolver:  Solving for Ux, Initial residual = 0.0035889, Final residual = 0.00031648, No Iterations 10
smoothSolver:  Solving for Uy, Initial residual = 0.0786859, Final residual = 0.0068372, No Iterations 10
smoothSolver:  Solving for Uz, Initial residual = 0.0634618, Final residual = 0.00544679, No Iterations 10
GAMG:  Solving for p, Initial residual = 0.0272726, Final residual = 0.000212227, No Iterations 4
time step continuity errors : sum local = 0.000412172, global = -8.32411e-06, cumulative = 2.21344e-05
smoothSolver:  Solving for omega, Initial residual = 0.000424177, Final residual = 3.87106e-05, No Iterations 3
smoothSolver:  Solving for k, Initial residual = 0.00549023, Final residual = 0.000325484, No Iterations 4
ExecutionTime = 2.44 s  ClockTime = 2 s

forceCoeffs forceCoeffs1 write:
    Cm    = 0.170125
    Cd    = 0.415048
    Cl    = 0.0410089
    Cl(f) = 0.19063
    Cl(r) = -0.149621

Time = 32

smoothSolver:  Solving for Ux, Initial residual = 0.00345311, Final residual = 0.000307847, No Iterations 10
smoothSolver:  Solving for Uy, Initial residual = 0.0756333, Final residual = 0.00660917, No Iterations 10
smoothSolver:  Solving for Uz, Initial residual = 0.061112, Final residual = 0.00529949, No Iterations 10
GAMG:  Solving for p, Initial residual = 0.0270373, Final residual = 0.000212486, No Iterations 4
time step continuity errors : sum local = 0.000402471, global = -9.70183e-06, cumulative = 1.24325e-05
smoothSolver:  Solving for omega, Initial residual = 0.000408376, Final residual = 3.75274e-05, No Iterations 3
smoothSolver:  Solving for k, Initial residual = 0.00541494, Final residual = 0.00032525, No Iterations 4
ExecutionTime = 2.5 s  ClockTime = 2 s

forceCoeffs forceCoeffs1 write:
    Cm    = 0.168964
    Cd    = 0.410736
    Cl    = 0.0456188
    Cl(f) = 0.191774
    Cl(r) = -0.146155

Time = 33

smoothSolver:  Solving for Ux, Initial residual = 0.00333441, Final residual = 0.000303036, No Iterations 10
smoothSolver:  Solving for Uy, Initial residual = 0.0729009, Final residual = 0.00639625, No Iterations 10
smoothSolver:  Solving for Uz, Initial residual = 0.0588288, Final residual = 0.00512975, No Iterations 10
GAMG:  Solving for p, Initial residual = 0.0266836, Final residual = 0.00021344, No Iterations 4
time step continuity errors : sum local = 0.000394397, global = -1.16252e-05, cumulative = 8.07323e-07
smoothSolver:  Solving for omega, Initial residual = 0.000398028, Final residual = 3.6586e-05, No Iterations 3
smoothSolver:  Solving for k, Initial residual = 0.00533478, Final residual = 0.000325383, No Iterations 4
ExecutionTime = 2.56 s  ClockTime = 2 s

forceCoeffs forceCoeffs1 write:
    Cm    = 0.166958
    Cd    = 0.406049
    Cl    = 0.0496617
    Cl(f) = 0.191789
    Cl(r) = -0.142127

Time = 34

smoothSolver:  Solving for Ux, Initial residual = 0.00322739, Final residual = 0.000296326, No Iterations 10
smoothSolver:  Solving for Uy, Initial residual = 0.0703932, Final residual = 0.00620362, No Iterations 10
smoothSolver:  Solving for Uz, Initial residual = 0.0562749, Final residual = 0.00492822, No Iterations 10
GAMG:  Solving for p, Initial residual = 0.026139, Final residual = 0.000212715, No Iterations 4
time step continuity errors : sum local = 0.000384959, global = -1.12928e-05, cumulative = -1.04855e-05
smoothSolver:  Solving for omega, Initial residual = 0.000383612, Final residual = 3.58517e-05, No Iterations 3
smoothSolver:  Solving for k, Initial residual = 0.00523736, Final residual = 0.000325165, No Iterations 4
ExecutionTime = 2.63 s  ClockTime = 2 s

forceCoeffs forceCoeffs1 write:
    Cm    = 0.164557
    Cd    = 0.401423
    Cl    = 0.0541158
    Cl(f) = 0.191614
    Cl(r) = -0.137499

Time = 35

smoothSolver:  Solving for Ux, Initial residual = 0.00312519, Final residual = 0.000287805, No Iterations 10
smoothSolver:  Solving for Uy, Initial residual = 0.0677136, Final residual = 0.00601935, No Iterations 10
smoothSolver:  Solving for Uz, Initial residual = 0.0535587, Final residual = 0.00471055, No Iterations 10
GAMG:  Solving for p, Initial residual = 0.0253636, Final residual = 0.000206674, No Iterations 4
time step continuity errors : sum local = 0.000367712, global = -1.01093e-05, cumulative = -2.05948e-05
smoothSolver:  Solving for omega, Initial residual = 0.000371588, Final residual = 3.50926e-05, No Iterations 3
smoothSolver:  Solving for k, Initial residual = 0.00515298, Final residual = 0.000324252, No Iterations 4
ExecutionTime = 2.7 s  ClockTime = 2 s

forceCoeffs forceCoeffs1 write:
    Cm    = 0.162245
    Cd    = 0.397986
    Cl    = 0.0582121
    Cl(f) = 0.191352
    Cl(r) = -0.133139

Time = 36

smoothSolver:  Solving for Ux, Initial residual = 0.0030182, Final residual = 0.000278046, No Iterations 10
smoothSolver:  Solving for Uy, Initial residual = 0.0646725, Final residual = 0.00580993, No Iterations 10
smoothSolver:  Solving for Uz, Initial residual = 0.0508537, Final residual = 0.00449986, No Iterations 10
GAMG:  Solving for p, Initial residual = 0.0244338, Final residual = 0.000199183, No Iterations 4
time step continuity errors : sum local = 0.000349128, global = -8.70129e-06, cumulative = -2.9296e-05
smoothSolver:  Solving for omega, Initial residual = 0.000359224, Final residual = 3.42567e-05, No Iterations 3
smoothSolver:  Solving for k, Initial residual = 0.005052, Final residual = 0.000322749, No Iterations 4
ExecutionTime = 2.76 s  ClockTime = 2 s

forceCoeffs forceCoeffs1 write:
    Cm    = 0.159828
    Cd    = 0.394301
    Cl    = 0.0611744
    Cl(f) = 0.190415
    Cl(r) = -0.12924

Time = 37

smoothSolver:  Solving for Ux, Initial residual = 0.00290777, Final residual = 0.000268685, No Iterations 10
smoothSolver:  Solving for Uy, Initial residual = 0.0615106, Final residual = 0.00557544, No Iterations 10
smoothSolver:  Solving for Uz, Initial residual = 0.0482157, Final residual = 0.00430685, No Iterations 10
GAMG:  Solving for p, Initial residual = 0.0235076, Final residual = 0.000193092, No Iterations 4
time step continuity errors : sum local = 0.000333928, global = -7.81876e-06, cumulative = -3.71148e-05
smoothSolver:  Solving for omega, Initial residual = 0.000347299, Final residual = 3.33978e-05, No Iterations 3
smoothSolver:  Solving for k, Initial residual = 0.00496072, Final residual = 0.000319799, No Iterations 4
ExecutionTime = 2.83 s  ClockTime = 3 s

forceCoeffs forceCoeffs1 write:
    Cm    = 0.157658
    Cd    = 0.391456
    Cl    = 0.0626035
    Cl(f) = 0.18896
    Cl(r) = -0.126357

Time = 38

smoothSolver:  Solving for Ux, Initial residual = 0.00280128, Final residual = 0.000260785, No Iterations 10
smoothSolver:  Solving for Uy, Initial residual = 0.0587, Final residual = 0.00535475, No Iterations 10
smoothSolver:  Solving for Uz, Initial residual = 0.0458623, Final residual = 0.00412724, No Iterations 10
GAMG:  Solving for p, Initial residual = 0.0226691, Final residual = 0.000189373, No Iterations 4
time step continuity errors : sum local = 0.000323595, global = -7.41093e-06, cumulative = -4.45257e-05
smoothSolver:  Solving for omega, Initial residual = 0.000336931, Final residual = 3.25474e-05, No Iterations 3
smoothSolver:  Solving for k, Initial residual = 0.0048567, Final residual = 0.000314835, No Iterations 4
ExecutionTime = 2.9 s  ClockTime = 3 s

forceCoeffs forceCoeffs1 write:
    Cm    = 0.156222
    Cd    = 0.389644
    Cl    = 0.0624845
    Cl(f) = 0.187464
    Cl(r) = -0.12498

Time = 39

smoothSolver:  Solving for Ux, Initial residual = 0.00270084, Final residual = 0.000254323, No Iterations 10
smoothSolver:  Solving for Uy, Initial residual = 0.0564389, Final residual = 0.00516613, No Iterations 10
smoothSolver:  Solving for Uz, Initial residual = 0.0440206, Final residual = 0.00396475, No Iterations 10
GAMG:  Solving for p, Initial residual = 0.0218834, Final residual = 0.000186111, No Iterations 4
time step continuity errors : sum local = 0.000314548, global = -7.38314e-06, cumulative = -5.19089e-05
smoothSolver:  Solving for omega, Initial residual = 0.000326048, Final residual = 3.15749e-05, No Iterations 3
smoothSolver:  Solving for k, Initial residual = 0.00472379, Final residual = 0.000308289, No Iterations 4
ExecutionTime = 2.97 s  ClockTime = 3 s

forceCoeffs forceCoeffs1 write:
    Cm    = 0.155437
    Cd    = 0.388866
    Cl    = 0.0615091
    Cl(f) = 0.186191
    Cl(r) = -0.124682

Time = 40

smoothSolver:  Solving for Ux, Initial residual = 0.00261407, Final residual = 0.000248581, No Iterations 10
smoothSolver:  Solving for Uy, Initial residual = 0.0545632, Final residual = 0.00499895, No Iterations 10
smoothSolver:  Solving for Uz, Initial residual = 0.0425614, Final residual = 0.00383322, No Iterations 10
GAMG:  Solving for p, Initial residual = 0.0211369, Final residual = 0.000180462, No Iterations 4
time step continuity errors : sum local = 0.000302105, global = -7.65462e-06, cumulative = -5.95635e-05
smoothSolver:  Solving for omega, Initial residual = 0.000315068, Final residual = 3.06449e-05, No Iterations 3
smoothSolver:  Solving for k, Initial residual = 0.00458046, Final residual = 0.000301307, No Iterations 4
ExecutionTime = 3.02 s  ClockTime = 3 s

forceCoeffs forceCoeffs1 write:
    Cm    = 0.155042
    Cd    = 0.388696
    Cl    = 0.0607622
    Cl(f) = 0.185424
    Cl(r) = -0.124661

Time = 41

smoothSolver:  Solving for Ux, Initial residual = 0.00253952, Final residual = 0.00024321, No Iterations 10
smoothSolver:  Solving for Uy, Initial residual = 0.0528341, Final residual = 0.00484181, No Iterations 10
smoothSolver:  Solving for Uz, Initial residual = 0.0414307, Final residual = 0.00372956, No Iterations 10
GAMG:  Solving for p, Initial residual = 0.020485, Final residual = 0.00017491, No Iterations 4
time step continuity errors : sum local = 0.000290142, global = -7.52409e-06, cumulative = -6.70876e-05
smoothSolver:  Solving for omega, Initial residual = 0.000304439, Final residual = 2.97688e-05, No Iterations 3
smoothSolver:  Solving for k, Initial residual = 0.00442781, Final residual = 0.000293644, No Iterations 4
ExecutionTime = 3.08 s  ClockTime = 3 s

forceCoeffs forceCoeffs1 write:
    Cm    = 0.154912
    Cd    = 0.388956
    Cl    = 0.0607686
    Cl(f) = 0.185297
    Cl(r) = -0.124528

Time = 42

smoothSolver:  Solving for Ux, Initial residual = 0.00247866, Final residual = 0.000237759, No Iterations 10
smoothSolver:  Solving for Uy, Initial residual = 0.0512197, Final residual = 0.00468398, No Iterations 10
smoothSolver:  Solving for Uz, Initial residual = 0.0404387, Final residual = 0.0036244, No Iterations 10
GAMG:  Solving for p, Initial residual = 0.0200254, Final residual = 0.000170655, No Iterations 4
time step continuity errors : sum local = 0.000280756, global = -7.48998e-06, cumulative = -7.45776e-05
smoothSolver:  Solving for omega, Initial residual = 0.000295209, Final residual = 2.89924e-05, No Iterations 3
smoothSolver:  Solving for k, Initial residual = 0.00427737, Final residual = 0.000285542, No Iterations 4
ExecutionTime = 3.14 s  ClockTime = 3 s

forceCoeffs forceCoeffs1 write:
    Cm    = 0.155021
    Cd    = 0.389524
    Cl    = 0.0614171
    Cl(f) = 0.18573
    Cl(r) = -0.124313

Time = 43

smoothSolver:  Solving for Ux, Initial residual = 0.00242044, Final residual = 0.000231294, No Iterations 10
smoothSolver:  Solving for Uy, Initial residual = 0.0497471, Final residual = 0.00450889, No Iterations 10
smoothSolver:  Solving for Uz, Initial residual = 0.0395459, Final residual = 0.0035124, No Iterations 10
GAMG:  Solving for p, Initial residual = 0.0197012, Final residual = 0.000166806, No Iterations 4
time step continuity errors : sum local = 0.000272213, global = -6.87126e-06, cumulative = -8.14488e-05
smoothSolver:  Solving for omega, Initial residual = 0.000287151, Final residual = 2.81481e-05, No Iterations 3
smoothSolver:  Solving for k, Initial residual = 0.00413573, Final residual = 0.000277515, No Iterations 4
ExecutionTime = 3.2 s  ClockTime = 3 s

forceCoeffs forceCoeffs1 write:
    Cm    = 0.155264
    Cd    = 0.390239
    Cl    = 0.0626572
    Cl(f) = 0.186593
    Cl(r) = -0.123936

Time = 44

smoothSolver:  Solving for Ux, Initial residual = 0.00236055, Final residual = 0.000224233, No Iterations 10
smoothSolver:  Solving for Uy, Initial residual = 0.048279, Final residual = 0.00433505, No Iterations 10
smoothSolver:  Solving for Uz, Initial residual = 0.0385683, Final residual = 0.00339069, No Iterations 10
GAMG:  Solving for p, Initial residual = 0.0194481, Final residual = 0.000161388, No Iterations 4
time step continuity errors : sum local = 0.000261362, global = -7.48242e-06, cumulative = -8.89312e-05
smoothSolver:  Solving for omega, Initial residual = 0.000279071, Final residual = 2.7312e-05, No Iterations 3
smoothSolver:  Solving for k, Initial residual = 0.0040073, Final residual = 0.000269652, No Iterations 4
ExecutionTime = 3.27 s  ClockTime = 3 s

forceCoeffs forceCoeffs1 write:
    Cm    = 0.155435
    Cd    = 0.390823
    Cl    = 0.0644616
    Cl(f) = 0.187665
    Cl(r) = -0.123204

Time = 45

smoothSolver:  Solving for Ux, Initial residual = 0.00229678, Final residual = 0.00021786, No Iterations 10
smoothSolver:  Solving for Uy, Initial residual = 0.0468948, Final residual = 0.00418048, No Iterations 10
smoothSolver:  Solving for Uz, Initial residual = 0.0375518, Final residual = 0.00326955, No Iterations 10
GAMG:  Solving for p, Initial residual = 0.0191939, Final residual = 0.000155497, No Iterations 4
time step continuity errors : sum local = 0.000250193, global = -6.88709e-06, cumulative = -9.58183e-05
smoothSolver:  Solving for omega, Initial residual = 0.000271238, Final residual = 2.65019e-05, No Iterations 3
smoothSolver:  Solving for k, Initial residual = 0.00389149, Final residual = 0.000261874, No Iterations 4
ExecutionTime = 3.34 s  ClockTime = 3 s

forceCoeffs forceCoeffs1 write:
    Cm    = 0.155389
    Cd    = 0.391083
    Cl    = 0.0667185
    Cl(f) = 0.188749
    Cl(r) = -0.12203

Time = 46

smoothSolver:  Solving for Ux, Initial residual = 0.00223608, Final residual = 0.000211998, No Iterations 10
smoothSolver:  Solving for Uy, Initial residual = 0.0454838, Final residual = 0.00403729, No Iterations 10
smoothSolver:  Solving for Uz, Initial residual = 0.0365561, Final residual = 0.0031597, No Iterations 10
GAMG:  Solving for p, Initial residual = 0.018889, Final residual = 0.000150663, No Iterations 4
time step continuity errors : sum local = 0.000241247, global = -5.28333e-06, cumulative = -0.000101102
smoothSolver:  Solving for omega, Initial residual = 0.000263132, Final residual = 2.56921e-05, No Iterations 3
smoothSolver:  Solving for k, Initial residual = 0.00378759, Final residual = 0.000254625, No Iterations 4
ExecutionTime = 3.42 s  ClockTime = 3 s

forceCoeffs forceCoeffs1 write:
    Cm    = 0.155029
    Cd    = 0.391012
    Cl    = 0.0690775
    Cl(f) = 0.189568
    Cl(r) = -0.120491

Time = 47

smoothSolver:  Solving for Ux, Initial residual = 0.00217402, Final residual = 0.000206221, No Iterations 10
smoothSolver:  Solving for Uy, Initial residual = 0.0441111, Final residual = 0.00391793, No Iterations 10
smoothSolver:  Solving for Uz, Initial residual = 0.0356692, Final residual = 0.00307656, No Iterations 10
GAMG:  Solving for p, Initial residual = 0.0184442, Final residual = 0.000147335, No Iterations 4
time step continuity errors : sum local = 0.000235174, global = -3.6604e-06, cumulative = -0.000104762
smoothSolver:  Solving for omega, Initial residual = 0.000256639, Final residual = 2.50092e-05, No Iterations 3
smoothSolver:  Solving for k, Initial residual = 0.00368862, Final residual = 0.00024722, No Iterations 4
ExecutionTime = 3.5 s  ClockTime = 3 s

forceCoeffs forceCoeffs1 write:
    Cm    = 0.15438
    Cd    = 0.390771
    Cl    = 0.0714131
    Cl(f) = 0.190087
    Cl(r) = -0.118674

Time = 48

smoothSolver:  Solving for Ux, Initial residual = 0.00211245, Final residual = 0.000200022, No Iterations 10
smoothSolver:  Solving for Uy, Initial residual = 0.0426525, Final residual = 0.00380141, No Iterations 10
smoothSolver:  Solving for Uz, Initial residual = 0.0348417, Final residual = 0.00300801, No Iterations 10
GAMG:  Solving for p, Initial residual = 0.0179299, Final residual = 0.000144922, No Iterations 4
time step continuity errors : sum local = 0.00023073, global = -2.58629e-06, cumulative = -0.000107348
smoothSolver:  Solving for omega, Initial residual = 0.000250033, Final residual = 2.43517e-05, No Iterations 3
smoothSolver:  Solving for k, Initial residual = 0.00359813, Final residual = 0.00024053, No Iterations 4
ExecutionTime = 3.59 s  ClockTime = 3 s

forceCoeffs forceCoeffs1 write:
    Cm    = 0.153315
    Cd    = 0.390569
    Cl    = 0.0738978
    Cl(f) = 0.190264
    Cl(r) = -0.116366

Time = 49

smoothSolver:  Solving for Ux, Initial residual = 0.0020537, Final residual = 0.00019417, No Iterations 10
smoothSolver:  Solving for Uy, Initial residual = 0.0411511, Final residual = 0.00366353, No Iterations 10
smoothSolver:  Solving for Uz, Initial residual = 0.0340106, Final residual = 0.00293296, No Iterations 10
GAMG:  Solving for p, Initial residual = 0.0175338, Final residual = 0.000142813, No Iterations 4
time step continuity errors : sum local = 0.00022697, global = -2.30726e-06, cumulative = -0.000109656
smoothSolver:  Solving for omega, Initial residual = 0.000242859, Final residual = 2.36754e-05, No Iterations 3
smoothSolver:  Solving for k, Initial residual = 0.00351262, Final residual = 0.000234859, No Iterations 4
ExecutionTime = 3.66 s  ClockTime = 3 s

forceCoeffs forceCoeffs1 write:
    Cm    = 0.152255
    Cd    = 0.390556
    Cl    = 0.076041
    Cl(f) = 0.190276
    Cl(r) = -0.114235

Time = 50

smoothSolver:  Solving for Ux, Initial residual = 0.00199725, Final residual = 0.00018895, No Iterations 10
smoothSolver:  Solving for Uy, Initial residual = 0.0397269, Final residual = 0.00352145, No Iterations 10
smoothSolver:  Solving for Uz, Initial residual = 0.0333044, Final residual = 0.00285886, No Iterations 10
GAMG:  Solving for p, Initial residual = 0.0171345, Final residual = 0.000138887, No Iterations 4
time step continuity errors : sum local = 0.000220237, global = -2.21005e-06, cumulative = -0.000111866
smoothSolver:  Solving for omega, Initial residual = 0.000236654, Final residual = 2.30585e-05, No Iterations 3
smoothSolver:  Solving for k, Initial residual = 0.00344757, Final residual = 0.000230531, No Iterations 4
ExecutionTime = 3.73 s  ClockTime = 3 s

forceCoeffs forceCoeffs1 write:
    Cm    = 0.151541
    Cd    = 0.391045
    Cl    = 0.0774336
    Cl(f) = 0.190257
    Cl(r) = -0.112824

Time = 51

smoothSolver:  Solving for Ux, Initial residual = 0.00194564, Final residual = 0.00018426, No Iterations 10
smoothSolver:  Solving for Uy, Initial residual = 0.0386943, Final residual = 0.00340235, No Iterations 10
smoothSolver:  Solving for Uz, Initial residual = 0.0327648, Final residual = 0.00279375, No Iterations 10
GAMG:  Solving for p, Initial residual = 0.0167533, Final residual = 0.000134049, No Iterations 4
time step continuity errors : sum local = 0.000212012, global = -1.42695e-06, cumulative = -0.000113293
smoothSolver:  Solving for omega, Initial residual = 0.000230321, Final residual = 2.25356e-05, No Iterations 3
smoothSolver:  Solving for k, Initial residual = 0.00338457, Final residual = 0.000226284, No Iterations 4
ExecutionTime = 3.8 s  ClockTime = 4 s

forceCoeffs forceCoeffs1 write:
    Cm    = 0.151445
    Cd    = 0.391916
    Cl    = 0.0781461
    Cl(f) = 0.190518
    Cl(r) = -0.112372

Time = 52

smoothSolver:  Solving for Ux, Initial residual = 0.00189809, Final residual = 0.000180129, No Iterations 10
smoothSolver:  Solving for Uy, Initial residual = 0.0378818, Final residual = 0.00331556, No Iterations 10
smoothSolver:  Solving for Uz, Initial residual = 0.0321955, Final residual = 0.002735, No Iterations 10
GAMG:  Solving for p, Initial residual = 0.0163815, Final residual = 0.000128564, No Iterations 4
time step continuity errors : sum local = 0.000202721, global = -1.22766e-06, cumulative = -0.00011452
smoothSolver:  Solving for omega, Initial residual = 0.000224681, Final residual = 2.20006e-05, No Iterations 3
bounding omega, min: -9.70402 max: 116023 average: 908.073
smoothSolver:  Solving for k, Initial residual = 0.00331933, Final residual = 0.00022159, No Iterations 4
ExecutionTime = 3.87 s  ClockTime = 4 s

forceCoeffs forceCoeffs1 write:
    Cm    = 0.152054
    Cd    = 0.393162
    Cl    = 0.0781142
    Cl(f) = 0.191111
    Cl(r) = -0.112997

Time = 53

smoothSolver:  Solving for Ux, Initial residual = 0.00185869, Final residual = 0.000175792, No Iterations 10
smoothSolver:  Solving for Uy, Initial residual = 0.0371411, Final residual = 0.00325637, No Iterations 10
smoothSolver:  Solving for Uz, Initial residual = 0.0315908, Final residual = 0.00267642, No Iterations 10
GAMG:  Solving for p, Initial residual = 0.0159998, Final residual = 0.000124729, No Iterations 4
time step continuity errors : sum local = 0.000196145, global = -1.30316e-06, cumulative = -0.000115823
smoothSolver:  Solving for omega, Initial residual = 0.00021969, Final residual = 2.15222e-05, No Iterations 3
smoothSolver:  Solving for k, Initial residual = 0.00324279, Final residual = 0.000216258, No Iterations 4
ExecutionTime = 3.94 s  ClockTime = 4 s

forceCoeffs forceCoeffs1 write:
    Cm    = 0.152926
    Cd    = 0.394177
    Cl    = 0.0774453
    Cl(f) = 0.191649
    Cl(r) = -0.114204

Time = 54

smoothSolver:  Solving for Ux, Initial residual = 0.00181856, Final residual = 0.000171, No Iterations 10
smoothSolver:  Solving for Uy, Initial residual = 0.0364189, Final residual = 0.00320442, No Iterations 10
smoothSolver:  Solving for Uz, Initial residual = 0.0308834, Final residual = 0.0026018, No Iterations 10
GAMG:  Solving for p, Initial residual = 0.0155877, Final residual = 0.000123524, No Iterations 4
time step continuity errors : sum local = 0.000193799, global = -1.48954e-06, cumulative = -0.000117313
smoothSolver:  Solving for omega, Initial residual = 0.000216038, Final residual = 2.10036e-05, No Iterations 3
smoothSolver:  Solving for k, Initial residual = 0.00316577, Final residual = 0.000209849, No Iterations 4
ExecutionTime = 4.01 s  ClockTime = 4 s

forceCoeffs forceCoeffs1 write:
    Cm    = 0.153523
    Cd    = 0.394758
    Cl    = 0.076532
    Cl(f) = 0.191789
    Cl(r) = -0.115257

Time = 55

smoothSolver:  Solving for Ux, Initial residual = 0.00177116, Final residual = 0.000165763, No Iterations 10
smoothSolver:  Solving for Uy, Initial residual = 0.0356972, Final residual = 0.00314167, No Iterations 10
smoothSolver:  Solving for Uz, Initial residual = 0.0301318, Final residual = 0.00252104, No Iterations 10
GAMG:  Solving for p, Initial residual = 0.0151456, Final residual = 0.000123959, No Iterations 4
time step continuity errors : sum local = 0.000193863, global = -1.66598e-06, cumulative = -0.000118979
smoothSolver:  Solving for omega, Initial residual = 0.000211504, Final residual = 2.05192e-05, No Iterations 3
smoothSolver:  Solving for k, Initial residual = 0.00308095, Final residual = 0.000203256, No Iterations 4
ExecutionTime = 4.07 s  ClockTime = 4 s

forceCoeffs forceCoeffs1 write:
    Cm    = 0.153658
    Cd    = 0.394753
    Cl    = 0.0758115
    Cl(f) = 0.191564
    Cl(r) = -0.115752

Time = 56

smoothSolver:  Solving for Ux, Initial residual = 0.00172247, Final residual = 0.00016093, No Iterations 10
smoothSolver:  Solving for Uy, Initial residual = 0.0349207, Final residual = 0.00305595, No Iterations 10
smoothSolver:  Solving for Uz, Initial residual = 0.0294493, Final residual = 0.00243721, No Iterations 10
GAMG:  Solving for p, Initial residual = 0.0148321, Final residual = 0.000124053, No Iterations 4
time step continuity errors : sum local = 0.000193378, global = -1.66831e-06, cumulative = -0.000120647
smoothSolver:  Solving for omega, Initial residual = 0.00020754, Final residual = 2.00325e-05, No Iterations 3
smoothSolver:  Solving for k, Initial residual = 0.00299153, Final residual = 0.000196689, No Iterations 4
ExecutionTime = 4.13 s  ClockTime = 4 s

forceCoeffs forceCoeffs1 write:
    Cm    = 0.153453
    Cd    = 0.39447
    Cl    = 0.0753904
    Cl(f) = 0.191148
    Cl(r) = -0.115758

Time = 57

smoothSolver:  Solving for Ux, Initial residual = 0.001673, Final residual = 0.000156138, No Iterations 10
smoothSolver:  Solving for Uy, Initial residual = 0.0339924, Final residual = 0.00294489, No Iterations 10
smoothSolver:  Solving for Uz, Initial residual = 0.028884, Final residual = 0.00235878, No Iterations 10
GAMG:  Solving for p, Initial residual = 0.0146637, Final residual = 0.000123083, No Iterations 4
time step continuity errors : sum local = 0.00019122, global = -1.26253e-06, cumulative = -0.00012191
smoothSolver:  Solving for omega, Initial residual = 0.000203551, Final residual = 1.9531e-05, No Iterations 3
smoothSolver:  Solving for k, Initial residual = 0.00290684, Final residual = 0.000190532, No Iterations 4
ExecutionTime = 4.21 s  ClockTime = 4 s

forceCoeffs forceCoeffs1 write:
    Cm    = 0.153142
    Cd    = 0.394179
    Cl    = 0.0752923
    Cl(f) = 0.190788
    Cl(r) = -0.115496

Time = 58

smoothSolver:  Solving for Ux, Initial residual = 0.00162878, Final residual = 0.000151237, No Iterations 10
smoothSolver:  Solving for Uy, Initial residual = 0.0331665, Final residual = 0.00282507, No Iterations 10
smoothSolver:  Solving for Uz, Initial residual = 0.0284736, Final residual = 0.00228738, No Iterations 10
GAMG:  Solving for p, Initial residual = 0.0146465, Final residual = 0.000122497, No Iterations 4
time step continuity errors : sum local = 0.000189762, global = -4.97536e-07, cumulative = -0.000122407
smoothSolver:  Solving for omega, Initial residual = 0.000199538, Final residual = 1.90945e-05, No Iterations 3
smoothSolver:  Solving for k, Initial residual = 0.00283278, Final residual = 0.000184948, No Iterations 4
ExecutionTime = 4.29 s  ClockTime = 4 s

forceCoeffs forceCoeffs1 write:
    Cm    = 0.152846
    Cd    = 0.394224
    Cl    = 0.0753919
    Cl(f) = 0.190542
    Cl(r) = -0.11515

Time = 59

smoothSolver:  Solving for Ux, Initial residual = 0.0015853, Final residual = 0.000146225, No Iterations 10
smoothSolver:  Solving for Uy, Initial residual = 0.0322354, Final residual = 0.00271037, No Iterations 10
smoothSolver:  Solving for Uz, Initial residual = 0.0280179, Final residual = 0.0028005, No Iterations 9
GAMG:  Solving for p, Initial residual = 0.0146592, Final residual = 0.000120493, No Iterations 4
time step continuity errors : sum local = 0.000186073, global = 3.24487e-07, cumulative = -0.000122083
smoothSolver:  Solving for omega, Initial residual = 0.000195154, Final residual = 1.86947e-05, No Iterations 3
smoothSolver:  Solving for k, Initial residual = 0.00277028, Final residual = 0.000180001, No Iterations 4
ExecutionTime = 4.39 s  ClockTime = 4 s

forceCoeffs forceCoeffs1 write:
    Cm    = 0.152663
    Cd    = 0.394699
    Cl    = 0.0756912
    Cl(f) = 0.190509
    Cl(r) = -0.114818

Time = 60

smoothSolver:  Solving for Ux, Initial residual = 0.00154165, Final residual = 0.00014148, No Iterations 10
smoothSolver:  Solving for Uy, Initial residual = 0.0311692, Final residual = 0.00260404, No Iterations 10
smoothSolver:  Solving for Uz, Initial residual = 0.0276754, Final residual = 0.00274887, No Iterations 9
GAMG:  Solving for p, Initial residual = 0.0146286, Final residual = 0.000118088, No Iterations 4
time step continuity errors : sum local = 0.000181827, global = 1.75162e-06, cumulative = -0.000120331
smoothSolver:  Solving for omega, Initial residual = 0.000191499, Final residual = 1.83171e-05, No Iterations 3
smoothSolver:  Solving for k, Initial residual = 0.00271285, Final residual = 0.000175714, No Iterations 4
ExecutionTime = 4.48 s  ClockTime = 4 s

forceCoeffs forceCoeffs1 write:
    Cm    = 0.152654
    Cd    = 0.395743
    Cl    = 0.0761351
    Cl(f) = 0.190722
    Cl(r) = -0.114587

Time = 61

smoothSolver:  Solving for Ux, Initial residual = 0.00149305, Final residual = 0.00013703, No Iterations 10
smoothSolver:  Solving for Uy, Initial residual = 0.0300283, Final residual = 0.00250311, No Iterations 10
smoothSolver:  Solving for Uz, Initial residual = 0.0271101, Final residual = 0.00269423, No Iterations 9
GAMG:  Solving for p, Initial residual = 0.0144002, Final residual = 0.00011398, No Iterations 4
time step continuity errors : sum local = 0.000175032, global = 3.31694e-06, cumulative = -0.000117014
smoothSolver:  Solving for omega, Initial residual = 0.000187318, Final residual = 1.79121e-05, No Iterations 3
smoothSolver:  Solving for k, Initial residual = 0.00265362, Final residual = 0.000171561, No Iterations 4
ExecutionTime = 4.55 s  ClockTime = 4 s

forceCoeffs forceCoeffs1 write:
    Cm    = 0.152914
    Cd    = 0.397311
    Cl    = 0.0767148
    Cl(f) = 0.191271
    Cl(r) = -0.114557

Time = 62

smoothSolver:  Solving for Ux, Initial residual = 0.00144526, Final residual = 0.000133267, No Iterations 10
smoothSolver:  Solving for Uy, Initial residual = 0.0289581, Final residual = 0.00241006, No Iterations 10
smoothSolver:  Solving for Uz, Initial residual = 0.0264201, Final residual = 0.0026382, No Iterations 9
GAMG:  Solving for p, Initial residual = 0.0140121, Final residual = 0.000111747, No Iterations 4
time step continuity errors : sum local = 0.000171273, global = 3.97986e-06, cumulative = -0.000113034
smoothSolver:  Solving for omega, Initial residual = 0.000183897, Final residual = 1.75214e-05, No Iterations 3
bounding omega, min: -1.90338 max: 116023 average: 917.778
smoothSolver:  Solving for k, Initial residual = 0.00259678, Final residual = 0.000167429, No Iterations 4
ExecutionTime = 4.62 s  ClockTime = 4 s

forceCoeffs forceCoeffs1 write:
    Cm    = 0.153307
    Cd    = 0.399107
    Cl    = 0.0773619
    Cl(f) = 0.191988
    Cl(r) = -0.114626

Time = 63

smoothSolver:  Solving for Ux, Initial residual = 0.00140017, Final residual = 0.000129729, No Iterations 10
smoothSolver:  Solving for Uy, Initial residual = 0.027902, Final residual = 0.00232577, No Iterations 10
smoothSolver:  Solving for Uz, Initial residual = 0.0256854, Final residual = 0.00205498, No Iterations 10
GAMG:  Solving for p, Initial residual = 0.0134642, Final residual = 0.000113215, No Iterations 4
time step continuity errors : sum local = 0.00017329, global = 4.23211e-06, cumulative = -0.000108802
smoothSolver:  Solving for omega, Initial residual = 0.000180312, Final residual = 1.72027e-05, No Iterations 3
smoothSolver:  Solving for k, Initial residual = 0.00253778, Final residual = 0.00016337, No Iterations 4
ExecutionTime = 4.68 s  ClockTime = 4 s

forceCoeffs forceCoeffs1 write:
    Cm    = 0.153836
    Cd    = 0.401047
    Cl    = 0.0778865
    Cl(f) = 0.192779
    Cl(r) = -0.114892

Time = 64

smoothSolver:  Solving for Ux, Initial residual = 0.00136016, Final residual = 0.000126311, No Iterations 10
smoothSolver:  Solving for Uy, Initial residual = 0.0269899, Final residual = 0.00225532, No Iterations 10
smoothSolver:  Solving for Uz, Initial residual = 0.02495, Final residual = 0.00199251, No Iterations 10
GAMG:  Solving for p, Initial residual = 0.0128579, Final residual = 0.000110702, No Iterations 4
time step continuity errors : sum local = 0.000169282, global = 4.01333e-06, cumulative = -0.000104789
smoothSolver:  Solving for omega, Initial residual = 0.000177381, Final residual = 1.69144e-05, No Iterations 3
smoothSolver:  Solving for k, Initial residual = 0.00248125, Final residual = 0.000159588, No Iterations 4
ExecutionTime = 4.75 s  ClockTime = 4 s

forceCoeffs forceCoeffs1 write:
    Cm    = 0.154241
    Cd    = 0.40273
    Cl    = 0.0782154
    Cl(f) = 0.193349
    Cl(r) = -0.115133

Time = 65

smoothSolver:  Solving for Ux, Initial residual = 0.00132366, Final residual = 0.000123277, No Iterations 10
smoothSolver:  Solving for Uy, Initial residual = 0.0262718, Final residual = 0.00218175, No Iterations 10
smoothSolver:  Solving for Uz, Initial residual = 0.0244134, Final residual = 0.00243894, No Iterations 9
GAMG:  Solving for p, Initial residual = 0.0123413, Final residual = 0.00010571, No Iterations 4
time step continuity errors : sum local = 0.000161531, global = 3.77078e-06, cumulative = -0.000101018
smoothSolver:  Solving for omega, Initial residual = 0.000174614, Final residual = 1.66627e-05, No Iterations 3
smoothSolver:  Solving for k, Initial residual = 0.0024262, Final residual = 0.00015587, No Iterations 4
ExecutionTime = 4.81 s  ClockTime = 5 s

forceCoeffs forceCoeffs1 write:
    Cm    = 0.154521
    Cd    = 0.40387
    Cl    = 0.0785197
    Cl(f) = 0.193781
    Cl(r) = -0.115261

Time = 66

smoothSolver:  Solving for Ux, Initial residual = 0.00129181, Final residual = 0.00012022, No Iterations 10
smoothSolver:  Solving for Uy, Initial residual = 0.0255985, Final residual = 0.0021087, No Iterations 10
smoothSolver:  Solving for Uz, Initial residual = 0.0240994, Final residual = 0.00191819, No Iterations 10
GAMG:  Solving for p, Initial residual = 0.0120402, Final residual = 0.00010356, No Iterations 4
time step continuity errors : sum local = 0.000158092, global = 3.67e-06, cumulative = -9.73482e-05
smoothSolver:  Solving for omega, Initial residual = 0.00017182, Final residual = 1.63926e-05, No Iterations 3
bounding omega, min: -22.1728 max: 116023 average: 921.916
smoothSolver:  Solving for k, Initial residual = 0.00237612, Final residual = 0.000152107, No Iterations 4
ExecutionTime = 4.87 s  ClockTime = 5 s

forceCoeffs forceCoeffs1 write:
    Cm    = 0.154596
    Cd    = 0.404441
    Cl    = 0.0789182
    Cl(f) = 0.194055
    Cl(r) = -0.115137

Time = 67

smoothSolver:  Solving for Ux, Initial residual = 0.0012597, Final residual = 0.000116916, No Iterations 10
smoothSolver:  Solving for Uy, Initial residual = 0.0249649, Final residual = 0.00203623, No Iterations 10
smoothSolver:  Solving for Uz, Initial residual = 0.0237108, Final residual = 0.00236765, No Iterations 9
GAMG:  Solving for p, Initial residual = 0.0118301, Final residual = 9.89494e-05, No Iterations 4
time step continuity errors : sum local = 0.000150895, global = 3.46292e-06, cumulative = -9.38853e-05
smoothSolver:  Solving for omega, Initial residual = 0.000169458, Final residual = 1.61003e-05, No Iterations 3
bounding omega, min: -13.9892 max: 116023 average: 923.537
smoothSolver:  Solving for k, Initial residual = 0.00232899, Final residual = 0.000148569, No Iterations 4
ExecutionTime = 4.93 s  ClockTime = 5 s

forceCoeffs forceCoeffs1 write:
    Cm    = 0.154616
    Cd    = 0.404517
    Cl    = 0.0793147
    Cl(f) = 0.194273
    Cl(r) = -0.114959

Time = 68

smoothSolver:  Solving for Ux, Initial residual = 0.00122813, Final residual = 0.000113423, No Iterations 10
smoothSolver:  Solving for Uy, Initial residual = 0.0243552, Final residual = 0.00196817, No Iterations 10
smoothSolver:  Solving for Uz, Initial residual = 0.0235596, Final residual = 0.00234788, No Iterations 9
GAMG:  Solving for p, Initial residual = 0.0116614, Final residual = 9.71026e-05, No Iterations 4
time step continuity errors : sum local = 0.000147888, global = 3.23852e-06, cumulative = -9.06468e-05
smoothSolver:  Solving for omega, Initial residual = 0.000167606, Final residual = 1.58463e-05, No Iterations 3
smoothSolver:  Solving for k, Initial residual = 0.00228094, Final residual = 0.000145453, No Iterations 4
ExecutionTime = 4.98 s  ClockTime = 5 s

forceCoeffs forceCoeffs1 write:
    Cm    = 0.154586
    Cd    = 0.404246
    Cl    = 0.0794585
    Cl(f) = 0.194315
    Cl(r) = -0.114857

Time = 69

smoothSolver:  Solving for Ux, Initial residual = 0.00120011, Final residual = 0.000110024, No Iterations 10
smoothSolver:  Solving for Uy, Initial residual = 0.0238013, Final residual = 0.0019095, No Iterations 10
smoothSolver:  Solving for Uz, Initial residual = 0.023393, Final residual = 0.00232659, No Iterations 9
GAMG:  Solving for p, Initial residual = 0.0115472, Final residual = 9.64809e-05, No Iterations 4
time step continuity errors : sum local = 0.00014679, global = 2.62452e-06, cumulative = -8.80222e-05
smoothSolver:  Solving for omega, Initial residual = 0.000165528, Final residual = 1.55964e-05, No Iterations 3
smoothSolver:  Solving for k, Initial residual = 0.00223954, Final residual = 0.000142929, No Iterations 4
ExecutionTime = 5.04 s  ClockTime = 5 s

forceCoeffs forceCoeffs1 write:
    Cm    = 0.15458
    Cd    = 0.403695
    Cl    = 0.0792822
    Cl(f) = 0.194221
    Cl(r) = -0.114939

Time = 70

smoothSolver:  Solving for Ux, Initial residual = 0.00117346, Final residual = 0.000106505, No Iterations 10
smoothSolver:  Solving for Uy, Initial residual = 0.0234082, Final residual = 0.00186164, No Iterations 10
smoothSolver:  Solving for Uz, Initial residual = 0.0232498, Final residual = 0.00230936, No Iterations 9
GAMG:  Solving for p, Initial residual = 0.0114792, Final residual = 9.72821e-05, No Iterations 4
time step continuity errors : sum local = 0.000147893, global = 1.87473e-06, cumulative = -8.61475e-05
smoothSolver:  Solving for omega, Initial residual = 0.000163733, Final residual = 1.54427e-05, No Iterations 3
bounding omega, min: -24.4659 max: 116023 average: 926.347
smoothSolver:  Solving for k, Initial residual = 0.00220236, Final residual = 0.000141114, No Iterations 4
ExecutionTime = 5.12 s  ClockTime = 5 s

forceCoeffs forceCoeffs1 write:
    Cm    = 0.154553
    Cd    = 0.40308
    Cl    = 0.0787718
    Cl(f) = 0.193939
    Cl(r) = -0.115167

Time = 71

smoothSolver:  Solving for Ux, Initial residual = 0.00114893, Final residual = 0.000102964, No Iterations 10
smoothSolver:  Solving for Uy, Initial residual = 0.0231826, Final residual = 0.00229737, No Iterations 9
smoothSolver:  Solving for Uz, Initial residual = 0.0231422, Final residual = 0.00229494, No Iterations 9
GAMG:  Solving for p, Initial residual = 0.0114458, Final residual = 9.8325e-05, No Iterations 4
time step continuity errors : sum local = 0.000149335, global = 1.43994e-06, cumulative = -8.47076e-05
smoothSolver:  Solving for omega, Initial residual = 0.000162672, Final residual = 1.53115e-05, No Iterations 3
bounding omega, min: -5.65339 max: 116023 average: 927.14
smoothSolver:  Solving for k, Initial residual = 0.00217376, Final residual = 0.000139843, No Iterations 4
ExecutionTime = 5.18 s  ClockTime = 5 s

forceCoeffs forceCoeffs1 write:
    Cm    = 0.154443
    Cd    = 0.402476
    Cl    = 0.0781142
    Cl(f) = 0.1935
    Cl(r) = -0.115386

Time = 72

smoothSolver:  Solving for Ux, Initial residual = 0.00112638, Final residual = 9.97822e-05, No Iterations 10
smoothSolver:  Solving for Uy, Initial residual = 0.0231866, Final residual = 0.00227587, No Iterations 9
smoothSolver:  Solving for Uz, Initial residual = 0.023043, Final residual = 0.00227775, No Iterations 9
GAMG:  Solving for p, Initial residual = 0.0114648, Final residual = 9.87546e-05, No Iterations 4
time step continuity errors : sum local = 0.000149795, global = 1.4696e-06, cumulative = -8.3238e-05
smoothSolver:  Solving for omega, Initial residual = 0.000162079, Final residual = 1.52296e-05, No Iterations 3
smoothSolver:  Solving for k, Initial residual = 0.00215764, Final residual = 0.000139049, No Iterations 4
ExecutionTime = 5.26 s  ClockTime = 5 s

forceCoeffs forceCoeffs1 write:
    Cm    = 0.154225
    Cd    = 0.401959
    Cl    = 0.0775039
    Cl(f) = 0.192977
    Cl(r) = -0.115473

Time = 73

smoothSolver:  Solving for Ux, Initial residual = 0.00110623, Final residual = 9.70337e-05, No Iterations 10
smoothSolver:  Solving for Uy, Initial residual = 0.0231672, Final residual = 0.0022524, No Iterations 9
smoothSolver:  Solving for Uz, Initial residual = 0.0229221, Final residual = 0.00225374, No Iterations 9
GAMG:  Solving for p, Initial residual = 0.0114894, Final residual = 9.7708e-05, No Iterations 4
time step continuity errors : sum local = 0.000147983, global = 1.49487e-06, cumulative = -8.17431e-05
smoothSolver:  Solving for omega, Initial residual = 0.000161552, Final residual = 1.51212e-05, No Iterations 3
smoothSolver:  Solving for k, Initial residual = 0.00214666, Final residual = 0.000138425, No Iterations 4
ExecutionTime = 5.34 s  ClockTime = 5 s

forceCoeffs forceCoeffs1 write:
    Cm    = 0.153973
    Cd    = 0.401508
    Cl    = 0.0772175
    Cl(f) = 0.192582
    Cl(r) = -0.115364

Time = 74

smoothSolver:  Solving for Ux, Initial residual = 0.0010855, Final residual = 9.43033e-05, No Iterations 10
smoothSolver:  Solving for Uy, Initial residual = 0.0231282, Final residual = 0.00222294, No Iterations 9
smoothSolver:  Solving for Uz, Initial residual = 0.0227397, Final residual = 0.0022199, No Iterations 9
GAMG:  Solving for p, Initial residual = 0.0115188, Final residual = 9.55248e-05, No Iterations 4
time step continuity errors : sum local = 0.000144423, global = 1.20154e-06, cumulative = -8.05416e-05
smoothSolver:  Solving for omega, Initial residual = 0.000161388, Final residual = 1.50502e-05, No Iterations 3
smoothSolver:  Solving for k, Initial residual = 0.00213686, Final residual = 0.000138159, No Iterations 4
ExecutionTime = 5.41 s  ClockTime = 5 s

forceCoeffs forceCoeffs1 write:
    Cm    = 0.153713
    Cd    = 0.401106
    Cl    = 0.0773338
    Cl(f) = 0.19238
    Cl(r) = -0.115046

Time = 75

smoothSolver:  Solving for Ux, Initial residual = 0.00106187, Final residual = 9.11981e-05, No Iterations 10
smoothSolver:  Solving for Uy, Initial residual = 0.0229324, Final residual = 0.00218794, No Iterations 9
smoothSolver:  Solving for Uz, Initial residual = 0.0224483, Final residual = 0.00217716, No Iterations 9
GAMG:  Solving for p, Initial residual = 0.0115446, Final residual = 9.39405e-05, No Iterations 4
time step continuity errors : sum local = 0.000141758, global = 5.0524e-07, cumulative = -8.00363e-05
smoothSolver:  Solving for omega, Initial residual = 0.000161318, Final residual = 1.4991e-05, No Iterations 3
smoothSolver:  Solving for k, Initial residual = 0.00212846, Final residual = 0.000137924, No Iterations 4
ExecutionTime = 5.49 s  ClockTime = 5 s

forceCoeffs forceCoeffs1 write:
    Cm    = 0.15361
    Cd    = 0.400867
    Cl    = 0.0778814
    Cl(f) = 0.192551
    Cl(r) = -0.114669

Time = 76

smoothSolver:  Solving for Ux, Initial residual = 0.00103497, Final residual = 8.78176e-05, No Iterations 10
smoothSolver:  Solving for Uy, Initial residual = 0.0226612, Final residual = 0.00215273, No Iterations 9
smoothSolver:  Solving for Uz, Initial residual = 0.0220915, Final residual = 0.00212619, No Iterations 9
GAMG:  Solving for p, Initial residual = 0.0115266, Final residual = 9.38025e-05, No Iterations 4
time step continuity errors : sum local = 0.00014125, global = -2.7654e-07, cumulative = -8.03129e-05
smoothSolver:  Solving for omega, Initial residual = 0.000160049, Final residual = 1.48782e-05, No Iterations 3
[...]
GAMG:  Solving for p, Initial residual = 0.0111086, Final residual = 9.33082e-05, No Iterations 4
time step continuity errors : sum local = 0.000139438, global = -1.49512e-06, cumulative = -8.68702e-05
smoothSolver:  Solving for omega, Initial residual = 0.000155258, Final residual = 1.41275e-05, No Iterations 3
smoothSolver:  Solving for k, Initial residual = 0.00206942, Final residual = 0.000131751, No Iterations 4
ExecutionTime = 5.83 s  ClockTime = 6 s

forceCoeffs forceCoeffs1 write:
    Cm    = 0.156751
    Cd    = 0.403916
    Cl    = 0.0825259
    Cl(f) = 0.198014
    Cl(r) = -0.115488

Time = 81

smoothSolver:  Solving for Ux, Initial residual = 0.000943794, Final residual = 7.90854e-05, No Iterations 10
smoothSolver:  Solving for Uy, Initial residual = 0.022043, Final residual = 0.0020853, No Iterations 9
smoothSolver:  Solving for Uz, Initial residual = 0.0201462, Final residual = 0.00190089, No Iterations 9
GAMG:  Solving for p, Initial residual = 0.0109445, Final residual = 9.17399e-05, No Iterations 4
time step continuity errors : sum local = 0.000136901, global = -2.66005e-07, cumulative = -8.71362e-05
smoothSolver:  Solving for omega, Initial residual = 0.000154732, Final residual = 1.40313e-05, No Iterations 3
smoothSolver:  Solving for k, Initial residual = 0.00206069, Final residual = 0.000131241, No Iterations 4
ExecutionTime = 5.9 s  ClockTime = 6 s

forceCoeffs forceCoeffs1 write:
    Cm    = 0.157723
    Cd    = 0.404706
    Cl    = 0.0826187
    Cl(f) = 0.199032
    Cl(r) = -0.116414

Time = 82

smoothSolver:  Solving for Ux, Initial residual = 0.000937673, Final residual = 7.90481e-05, No Iterations 10
smoothSolver:  Solving for Uy, Initial residual = 0.0219668, Final residual = 0.00208998, No Iterations 9
smoothSolver:  Solving for Uz, Initial residual = 0.0198163, Final residual = 0.00188165, No Iterations 9
GAMG:  Solving for p, Initial residual = 0.0107691, Final residual = 9.16285e-05, No Iterations 4
time step continuity errors : sum local = 0.000136678, global = 5.64193e-07, cumulative = -8.6572e-05
smoothSolver:  Solving for omega, Initial residual = 0.000153869, Final residual = 1.39626e-05, No Iterations 3
smoothSolver:  Solving for k, Initial residual = 0.00205469, Final residual = 0.000130621, No Iterations 4
ExecutionTime = 5.98 s  ClockTime = 6 s

forceCoeffs forceCoeffs1 write:
    Cm    = 0.158588
    Cd    = 0.405325
    Cl    = 0.0821371
    Cl(f) = 0.199657
    Cl(r) = -0.11752

Time = 83

smoothSolver:  Solving for Ux, Initial residual = 0.00093033, Final residual = 7.92324e-05, No Iterations 10
smoothSolver:  Solving for Uy, Initial residual = 0.0218348, Final residual = 0.00209081, No Iterations 9
smoothSolver:  Solving for Uz, Initial residual = 0.01955, Final residual = 0.00186761, No Iterations 9
GAMG:  Solving for p, Initial residual = 0.0105848, Final residual = 9.14032e-05, No Iterations 4
time step continuity errors : sum local = 0.000136518, global = 9.36438e-07, cumulative = -8.56355e-05
smoothSolver:  Solving for omega, Initial residual = 0.0001528, Final residual = 1.38572e-05, No Iterations 3
smoothSolver:  Solving for k, Initial residual = 0.00204592, Final residual = 0.000129699, No Iterations 4
ExecutionTime = 6.05 s  ClockTime = 6 s

forceCoeffs forceCoeffs1 write:
    Cm    = 0.159351
    Cd    = 0.405785
    Cl    = 0.081171
    Cl(f) = 0.199937
    Cl(r) = -0.118766

Time = 84

smoothSolver:  Solving for Ux, Initial residual = 0.000923714, Final residual = 7.96975e-05, No Iterations 10
smoothSolver:  Solving for Uy, Initial residual = 0.0216611, Final residual = 0.0020872, No Iterations 9
smoothSolver:  Solving for Uz, Initial residual = 0.0193572, Final residual = 0.00185163, No Iterations 9
GAMG:  Solving for p, Initial residual = 0.0104617, Final residual = 9.04818e-05, No Iterations 4
time step continuity errors : sum local = 0.000135567, global = 1.06235e-06, cumulative = -8.45732e-05
smoothSolver:  Solving for omega, Initial residual = 0.000152559, Final residual = 1.38148e-05, No Iterations 3
bounding omega, min: -33.4221 max: 116023 average: 930.961
smoothSolver:  Solving for k, Initial residual = 0.00203877, Final residual = 0.0001287, No Iterations 4
ExecutionTime = 6.13 s  ClockTime = 6 s

forceCoeffs forceCoeffs1 write:
    Cm    = 0.159992
    Cd    = 0.406159
    Cl    = 0.0798394
    Cl(f) = 0.199911
    Cl(r) = -0.120072

Time = 85

smoothSolver:  Solving for Ux, Initial residual = 0.000923592, Final residual = 8.00269e-05, No Iterations 10
smoothSolver:  Solving for Uy, Initial residual = 0.0215565, Final residual = 0.0020819, No Iterations 9
smoothSolver:  Solving for Uz, Initial residual = 0.0192676, Final residual = 0.00184254, No Iterations 9
GAMG:  Solving for p, Initial residual = 0.0103565, Final residual = 8.89835e-05, No Iterations 4
time step continuity errors : sum local = 0.000133877, global = 1.04967e-06, cumulative = -8.35235e-05
smoothSolver:  Solving for omega, Initial residual = 0.000151926, Final residual = 1.37225e-05, No Iterations 3
bounding omega, min: -17.614 max: 116023 average: 931.334
smoothSolver:  Solving for k, Initial residual = 0.00202745, Final residual = 0.000127621, No Iterations 4
ExecutionTime = 6.19 s  ClockTime = 6 s

forceCoeffs forceCoeffs1 write:
    Cm    = 0.160552
    Cd    = 0.406464
    Cl    = 0.0784329
    Cl(f) = 0.199768
    Cl(r) = -0.121336

Time = 86

smoothSolver:  Solving for Ux, Initial residual = 0.000923579, Final residual = 8.00129e-05, No Iterations 10
smoothSolver:  Solving for Uy, Initial residual = 0.0214525, Final residual = 0.00207339, No Iterations 9
smoothSolver:  Solving for Uz, Initial residual = 0.0192262, Final residual = 0.00184243, No Iterations 9
GAMG:  Solving for p, Initial residual = 0.0103106, Final residual = 8.75946e-05, No Iterations 4
time step continuity errors : sum local = 0.000132398, global = 9.19843e-07, cumulative = -8.26037e-05
smoothSolver:  Solving for omega, Initial residual = 0.000151523, Final residual = 1.36562e-05, No Iterations 3
bounding omega, min: -38.2247 max: 116023 average: 931.405
smoothSolver:  Solving for k, Initial residual = 0.00201209, Final residual = 0.000126591, No Iterations 4
ExecutionTime = 6.26 s  ClockTime = 6 s

forceCoeffs forceCoeffs1 write:
    Cm    = 0.160944
    Cd    = 0.406724
    Cl    = 0.0771881
    Cl(f) = 0.199538
    Cl(r) = -0.12235

Time = 87

smoothSolver:  Solving for Ux, Initial residual = 0.00092302, Final residual = 7.97713e-05, No Iterations 10
smoothSolver:  Solving for Uy, Initial residual = 0.0212868, Final residual = 0.0020546, No Iterations 9
smoothSolver:  Solving for Uz, Initial residual = 0.0191988, Final residual = 0.00184064, No Iterations 9
GAMG:  Solving for p, Initial residual = 0.0102847, Final residual = 8.68593e-05, No Iterations 4
time step continuity errors : sum local = 0.000131837, global = 6.45047e-07, cumulative = -8.19586e-05
smoothSolver:  Solving for omega, Initial residual = 0.000150459, Final residual = 1.35582e-05, No Iterations 3
bounding omega, min: -60.4672 max: 116023 average: 931.742
smoothSolver:  Solving for k, Initial residual = 0.00199268, Final residual = 0.000125331, No Iterations 4
ExecutionTime = 6.32 s  ClockTime = 6 s

forceCoeffs forceCoeffs1 write:
    Cm    = 0.161136
    Cd    = 0.406939
    Cl    = 0.0762892
    Cl(f) = 0.199281
    Cl(r) = -0.122992

Time = 88

smoothSolver:  Solving for Ux, Initial residual = 0.000918039, Final residual = 7.95714e-05, No Iterations 10
smoothSolver:  Solving for Uy, Initial residual = 0.02099, Final residual = 0.00202528, No Iterations 9
smoothSolver:  Solving for Uz, Initial residual = 0.0190622, Final residual = 0.00183157, No Iterations 9
GAMG:  Solving for p, Initial residual = 0.0102361, Final residual = 8.67601e-05, No Iterations 4
time step continuity errors : sum local = 0.000132115, global = 7.80426e-08, cumulative = -8.18806e-05
smoothSolver:  Solving for omega, Initial residual = 0.000149071, Final residual = 1.34381e-05, No Iterations 3
bounding omega, min: -72.6904 max: 116023 average: 931.374
smoothSolver:  Solving for k, Initial residual = 0.00197512, Final residual = 0.000124264, No Iterations 4
ExecutionTime = 6.39 s  ClockTime = 6 s

forceCoeffs forceCoeffs1 write:
    Cm    = 0.161096
    Cd    = 0.407149
    Cl    = 0.0757655
    Cl(f) = 0.198979
    Cl(r) = -0.123213

Time = 89

smoothSolver:  Solving for Ux, Initial residual = 0.000910221, Final residual = 7.94853e-05, No Iterations 10
smoothSolver:  Solving for Uy, Initial residual = 0.0206249, Final residual = 0.00199306, No Iterations 9
smoothSolver:  Solving for Uz, Initial residual = 0.0187793, Final residual = 0.0018105, No Iterations 9
GAMG:  Solving for p, Initial residual = 0.0101564, Final residual = 8.57466e-05, No Iterations 4
time step continuity errors : sum local = 0.000130837, global = -1.06167e-06, cumulative = -8.29423e-05
smoothSolver:  Solving for omega, Initial residual = 0.000147814, Final residual = 1.33243e-05, No Iterations 3
bounding omega, min: -84.687 max: 116023 average: 932.242
smoothSolver:  Solving for k, Initial residual = 0.00195666, Final residual = 0.000123215, No Iterations 4
ExecutionTime = 6.45 s  ClockTime = 6 s

forceCoeffs forceCoeffs1 write:
    Cm    = 0.160838
    Cd    = 0.407257
    Cl    = 0.0756149
    Cl(f) = 0.198645
    Cl(r) = -0.12303

Time = 90

smoothSolver:  Solving for Ux, Initial residual = 0.000900637, Final residual = 7.93049e-05, No Iterations 10
smoothSolver:  Solving for Uy, Initial residual = 0.0202576, Final residual = 0.00196319, No Iterations 9
smoothSolver:  Solving for Uz, Initial residual = 0.018411, Final residual = 0.00177918, No Iterations 9
GAMG:  Solving for p, Initial residual = 0.0100598, Final residual = 8.349e-05, No Iterations 4
time step continuity errors : sum local = 0.000127506, global = -2.28036e-06, cumulative = -8.52226e-05
smoothSolver:  Solving for omega, Initial residual = 0.000146691, Final residual = 1.32291e-05, No Iterations 3
bounding omega, min: -65.7996 max: 116023 average: 931.474
smoothSolver:  Solving for k, Initial residual = 0.00193589, Final residual = 0.00012227, No Iterations 4
ExecutionTime = 6.52 s  ClockTime = 6 s

forceCoeffs forceCoeffs1 write:
    Cm    = 0.160359
    Cd    = 0.407235
    Cl    = 0.0756218
    Cl(f) = 0.19817
    Cl(r) = -0.122548

Time = 91

smoothSolver:  Solving for Ux, Initial residual = 0.000891921, Final residual = 7.89667e-05, No Iterations 10
smoothSolver:  Solving for Uy, Initial residual = 0.0199165, Final residual = 0.00193556, No Iterations 9
smoothSolver:  Solving for Uz, Initial residual = 0.0180111, Final residual = 0.00174478, No Iterations 9
GAMG:  Solving for p, Initial residual = 0.00996121, Final residual = 8.02449e-05, No Iterations 4
time step continuity errors : sum local = 0.000122517, global = -2.60304e-06, cumulative = -8.78257e-05
smoothSolver:  Solving for omega, Initial residual = 0.000145741, Final residual = 1.31582e-05, No Iterations 3
bounding omega, min: -49.3927 max: 116023 average: 931.845
smoothSolver:  Solving for k, Initial residual = 0.00191646, Final residual = 0.000121635, No Iterations 4
ExecutionTime = 6.59 s  ClockTime = 6 s

forceCoeffs forceCoeffs1 write:
    Cm    = 0.159707
    Cd    = 0.406937
    Cl    = 0.0757167
    Cl(f) = 0.197565
    Cl(r) = -0.121849

Time = 92

smoothSolver:  Solving for Ux, Initial residual = 0.000884078, Final residual = 7.85113e-05, No Iterations 10
smoothSolver:  Solving for Uy, Initial residual = 0.0196542, Final residual = 0.00191967, No Iterations 9
smoothSolver:  Solving for Uz, Initial residual = 0.0176637, Final residual = 0.00171371, No Iterations 9
GAMG:  Solving for p, Initial residual = 0.00988273, Final residual = 7.63895e-05, No Iterations 4
time step continuity errors : sum local = 0.00011641, global = -2.30327e-06, cumulative = -9.01289e-05
smoothSolver:  Solving for omega, Initial residual = 0.000146423, Final residual = 1.31619e-05, No Iterations 3
bounding omega, min: -18.7389 max: 116023 average: 932.041
smoothSolver:  Solving for k, Initial residual = 0.00189779, Final residual = 0.000120828, No Iterations 4
ExecutionTime = 6.68 s  ClockTime = 6 s

forceCoeffs forceCoeffs1 write:
    Cm    = 0.158999
    Cd    = 0.406462
    Cl    = 0.0758769
    Cl(f) = 0.196937
    Cl(r) = -0.12106

Time = 93

smoothSolver:  Solving for Ux, Initial residual = 0.000878421, Final residual = 7.81969e-05, No Iterations 10
smoothSolver:  Solving for Uy, Initial residual = 0.0194837, Final residual = 0.00191322, No Iterations 9
smoothSolver:  Solving for Uz, Initial residual = 0.0173839, Final residual = 0.00169052, No Iterations 9
GAMG:  Solving for p, Initial residual = 0.00980316, Final residual = 7.26764e-05, No Iterations 4
time step continuity errors : sum local = 0.0001104, global = -1.67111e-06, cumulative = -9.18001e-05
smoothSolver:  Solving for omega, Initial residual = 0.000146146, Final residual = 1.3134e-05, No Iterations 3
bounding omega, min: -10.6525 max: 116023 average: 931.874
smoothSolver:  Solving for k, Initial residual = 0.00187286, Final residual = 0.000119581, No Iterations 4
ExecutionTime = 6.75 s  ClockTime = 6 s

forceCoeffs forceCoeffs1 write:
    Cm    = 0.158408
    Cd    = 0.405899
    Cl    = 0.0760357
    Cl(f) = 0.196426
    Cl(r) = -0.12039

Time = 94

smoothSolver:  Solving for Ux, Initial residual = 0.000873489, Final residual = 7.79197e-05, No Iterations 10
smoothSolver:  Solving for Uy, Initial residual = 0.0193842, Final residual = 0.00190445, No Iterations 9
smoothSolver:  Solving for Uz, Initial residual = 0.0172201, Final residual = 0.0016739, No Iterations 9
GAMG:  Solving for p, Initial residual = 0.009731, Final residual = 7.06672e-05, No Iterations 4
time step continuity errors : sum local = 0.000106962, global = -1.17249e-06, cumulative = -9.29725e-05
smoothSolver:  Solving for omega, Initial residual = 0.000145512, Final residual = 1.31052e-05, No Iterations 3
smoothSolver:  Solving for k, Initial residual = 0.00184605, Final residual = 0.000117952, No Iterations 4
ExecutionTime = 6.81 s  ClockTime = 7 s

forceCoeffs forceCoeffs1 write:
    Cm    = 0.157971
    Cd    = 0.405228
    Cl    = 0.0760643
    Cl(f) = 0.196003
    Cl(r) = -0.119939

Time = 95

smoothSolver:  Solving for Ux, Initial residual = 0.00086883, Final residual = 7.74499e-05, No Iterations 10
smoothSolver:  Solving for Uy, Initial residual = 0.0192771, Final residual = 0.00189309, No Iterations 9
smoothSolver:  Solving for Uz, Initial residual = 0.0171061, Final residual = 0.00166686, No Iterations 9
GAMG:  Solving for p, Initial residual = 0.00965106, Final residual = 7.10695e-05, No Iterations 4
time step continuity errors : sum local = 0.000107238, global = -7.78466e-07, cumulative = -9.3751e-05
smoothSolver:  Solving for omega, Initial residual = 0.000144889, Final residual = 1.30758e-05, No Iterations 3
bounding omega, min: -2.4417 max: 116023 average: 931.654
smoothSolver:  Solving for k, Initial residual = 0.00181746, Final residual = 0.000116008, No Iterations 4
ExecutionTime = 6.88 s  ClockTime = 7 s

forceCoeffs forceCoeffs1 write:
    Cm    = 0.157712
    Cd    = 0.404341
    Cl    = 0.0758865
    Cl(f) = 0.195656
    Cl(r) = -0.119769

Time = 96

smoothSolver:  Solving for Ux, Initial residual = 0.00086464, Final residual = 7.69714e-05, No Iterations 10
smoothSolver:  Solving for Uy, Initial residual = 0.0192191, Final residual = 0.00188824, No Iterations 9
smoothSolver:  Solving for Uz, Initial residual = 0.0170524, Final residual = 0.00166825, No Iterations 9
GAMG:  Solving for p, Initial residual = 0.0095832, Final residual = 7.35987e-05, No Iterations 4
time step continuity errors : sum local = 0.00011084, global = -2.51524e-07, cumulative = -9.40025e-05
smoothSolver:  Solving for omega, Initial residual = 0.000144678, Final residual = 1.30024e-05, No Iterations 3
smoothSolver:  Solving for k, Initial residual = 0.00179403, Final residual = 0.000114006, No Iterations 4
ExecutionTime = 6.95 s  ClockTime = 7 s

forceCoeffs forceCoeffs1 write:
    Cm    = 0.157628
    Cd    = 0.403418
    Cl    = 0.075421
    Cl(f) = 0.195339
    Cl(r) = -0.119918

Time = 97

smoothSolver:  Solving for Ux, Initial residual = 0.000862808, Final residual = 7.67317e-05, No Iterations 10
smoothSolver:  Solving for Uy, Initial residual = 0.0192876, Final residual = 0.00189705, No Iterations 9
smoothSolver:  Solving for Uz, Initial residual = 0.0171026, Final residual = 0.00167242, No Iterations 9
GAMG:  Solving for p, Initial residual = 0.00956324, Final residual = 7.61526e-05, No Iterations 4
time step continuity errors : sum local = 0.000114632, global = 5.32713e-07, cumulative = -9.34698e-05
smoothSolver:  Solving for omega, Initial residual = 0.00014412, Final residual = 1.29052e-05, No Iterations 3
smoothSolver:  Solving for k, Initial residual = 0.00177482, Final residual = 0.000111924, No Iterations 4
ExecutionTime = 7.02 s  ClockTime = 7 s

forceCoeffs forceCoeffs1 write:
    Cm    = 0.157787
    Cd    = 0.402661
    Cl    = 0.0748154
    Cl(f) = 0.195195
    Cl(r) = -0.120379

Time = 98

smoothSolver:  Solving for Ux, Initial residual = 0.000861084, Final residual = 7.65637e-05, No Iterations 10
smoothSolver:  Solving for Uy, Initial residual = 0.0194517, Final residual = 0.00191314, No Iterations 9
smoothSolver:  Solving for Uz, Initial residual = 0.0172146, Final residual = 0.00168095, No Iterations 9
GAMG:  Solving for p, Initial residual = 0.00958867, Final residual = 7.68531e-05, No Iterations 4
time step continuity errors : sum local = 0.000115765, global = 5.98329e-07, cumulative = -9.28715e-05
smoothSolver:  Solving for omega, Initial residual = 0.000142537, Final residual = 1.27402e-05, No Iterations 3
bounding omega, min: -1.92317 max: 116023 average: 930.983
smoothSolver:  Solving for k, Initial residual = 0.00175449, Final residual = 0.000110058, No Iterations 4
ExecutionTime = 7.09 s  ClockTime = 7 s

forceCoeffs forceCoeffs1 write:
    Cm    = 0.158232
    Cd    = 0.4024
    Cl    = 0.0742407
    Cl(f) = 0.195352
    Cl(r) = -0.121111

Time = 99

smoothSolver:  Solving for Ux, Initial residual = 0.000859233, Final residual = 7.63547e-05, No Iterations 10
smoothSolver:  Solving for Uy, Initial residual = 0.0196227, Final residual = 0.00193265, No Iterations 9
smoothSolver:  Solving for Uz, Initial residual = 0.0172893, Final residual = 0.001687, No Iterations 9
GAMG:  Solving for p, Initial residual = 0.00958977, Final residual = 7.64021e-05, No Iterations 4
time step continuity errors : sum local = 0.000115281, global = 5.77953e-07, cumulative = -9.22935e-05
smoothSolver:  Solving for omega, Initial residual = 0.000141305, Final residual = 1.2584e-05, No Iterations 3
smoothSolver:  Solving for k, Initial residual = 0.00173584, Final residual = 0.000108551, No Iterations 4
ExecutionTime = 7.15 s  ClockTime = 7 s

forceCoeffs forceCoeffs1 write:
    Cm    = 0.158881
    Cd    = 0.402594
    Cl    = 0.0739451
    Cl(f) = 0.195854
    Cl(r) = -0.121909

Time = 100

smoothSolver:  Solving for Ux, Initial residual = 0.000855557, Final residual = 7.60741e-05, No Iterations 10
smoothSolver:  Solving for Uy, Initial residual = 0.0197222, Final residual = 0.00194987, No Iterations 9
smoothSolver:  Solving for Uz, Initial residual = 0.0173497, Final residual = 0.00169069, No Iterations 9
GAMG:  Solving for p, Initial residual = 0.00955488, Final residual = 7.58343e-05, No Iterations 4
time step continuity errors : sum local = 0.00011465, global = 3.504e-07, cumulative = -9.19431e-05
smoothSolver:  Solving for omega, Initial residual = 0.000139922, Final residual = 1.24277e-05, No Iterations 3
smoothSolver:  Solving for k, Initial residual = 0.00172021, Final residual = 0.000107441, No Iterations 4
ExecutionTime = 7.22 s  ClockTime = 7 s

forceCoeffs forceCoeffs1 write:
    Cm    = 0.159563
    Cd    = 0.403198
    Cl    = 0.0738964
    Cl(f) = 0.196512
    Cl(r) = -0.122615

End

Finalising parallel run
