/*---------------------------------------------------------------------------*\
  =========                 |
  \\      /  F ield         | OpenFOAM: The Open Source CFD Toolbox
   \\    /   O peration     | Website:  https://openfoam.org
    \\  /    A nd           | Version:  7
     \\/     M anipulation  |
\*---------------------------------------------------------------------------*/
Build  : 7
Exec   : snappyHexMesh -parallel -overwrite
Date   : Oct 14 2020
Time   : 17:38:40
Host   : "cpu-p-281"
PID    : 91361
I/O    : uncollated
Case   : /rds/user/hpcbras1/hpc-work/csd3/cclake-roce-gcc9-ompi3-ucx/openfoam/Openfoam_Mbike_csd3_cclake_roce_gcc9_ompi3_ucx_56_56
nProcs : 56
Slaves : 
55
(
"cpu-p-281.91362"
"cpu-p-281.91363"
"cpu-p-281.91364"
"cpu-p-281.91365"
"cpu-p-281.91366"
"cpu-p-281.91367"
"cpu-p-281.91368"
"cpu-p-281.91369"
"cpu-p-281.91370"
"cpu-p-281.91371"
"cpu-p-281.91372"
"cpu-p-281.91373"
"cpu-p-281.91374"
"cpu-p-281.91375"
"cpu-p-281.91376"
"cpu-p-281.91377"
"cpu-p-281.91378"
"cpu-p-281.91379"
"cpu-p-281.91380"
"cpu-p-281.91381"
"cpu-p-281.91382"
"cpu-p-281.91383"
"cpu-p-281.91384"
"cpu-p-281.91385"
"cpu-p-281.91386"
"cpu-p-281.91387"
"cpu-p-281.91388"
"cpu-p-281.91389"
"cpu-p-281.91390"
"cpu-p-281.91391"
"cpu-p-281.91392"
"cpu-p-281.91393"
"cpu-p-281.91394"
"cpu-p-281.91395"
"cpu-p-281.91396"
"cpu-p-281.91397"
"cpu-p-281.91398"
"cpu-p-281.91399"
"cpu-p-281.91400"
"cpu-p-281.91401"
"cpu-p-281.91402"
"cpu-p-281.91403"
"cpu-p-281.91404"
"cpu-p-281.91405"
"cpu-p-281.91406"
"cpu-p-281.91408"
"cpu-p-281.91409"
"cpu-p-281.91410"
"cpu-p-281.91414"
"cpu-p-281.91423"
"cpu-p-281.91425"
"cpu-p-281.91432"
"cpu-p-281.91433"
"cpu-p-281.91436"
"cpu-p-281.91441"
)

Pstream initialized with:
    floatTransfer      : 0
    nProcsSimpleSum    : 0
    commsType          : nonBlocking
    polling iterations : 0
sigFpe : Enabling floating point exception trapping (FOAM_SIGFPE).
fileModificationChecking : Monitoring run-time modified files using timeStampMaster (fileModificationSkew 10)
allowSystemOperations : Allowing user-supplied system call operations

// * * * * * * * * * * * * * * * * * * * * * * * * * * * * * * * * * * * * * //
Create time

Create mesh for time = 0

Read mesh in = 0.05 s

Overall mesh bounding box  : (-5 -4 0) (15 4 8)
Relative tolerance         : 1e-06
Absolute matching distance : 2.29783e-05

Reading refinement surfaces.
Read refinement surfaces in = 1.62 s

Reading refinement shells.
Refinement level 4 for all cells inside refinementBox
Read refinement shells in = 0 s

Setting refinement level of surface to be consistent with shells.
Checked shell refinement in = 1.47 s

Reading features.
Read edgeMesh motorBike.eMesh
    points      : 20665
    edges       : 20867
    boundingBox : (-0.241214 -0.337971 -4.232e-05) (1.75115 0.329368 1.21979)

Refinement level according to distance to "motorBike.eMesh" (20665 points, 20867 edges).
    level 6 for all cells within 0 metre.
Read features in = 0.08 s


Determining initial surface intersections
-----------------------------------------

Edge intersection testing:
    Number of edges             : 32256
    Number of edges to retest   : 32256
    Number of intersected edges : 26
Calculated surface intersections in = 0.07 s

Initial mesh : cells:10240  faces:32256  points:11849
Cells per refinement level:
    0	10240

Adding patches for surface regions
----------------------------------

Patch Type                Region                        
----- ----                ------                        
motorBike:

5     wall                motorBike_frt-fairing:001%1   
6     wall                motorBike_windshield:002%2    
7     wall                motorBike_rr-wh-rim:005%5     
8     wall                motorBike_rr-wh-rim:010%10    
9     wall                motorBike_fr-wh-rim:011%11    
10    wall                motorBike_fr-wh-brake-disk:012%12
11    wall                motorBike_frame:016-shadow%13 
12    wall                motorBike_rear-susp:014%14    
13    wall                motorBike_rear-susp:014-shadow%15
14    wall                motorBike_frame:016%16        
15    wall                motorBike_rr-wh-rim:005-shadow%17
16    wall                motorBike_rr-wh-chain-hub:022%22
17    wall                motorBike_rearseat%24         
18    wall                motorBike_frt-fairing%25      
19    wall                motorBike_windshield%26       
20    wall                motorBike_headlights%27       
21    wall                motorBike_driversseat%28      
22    wall                motorBike_rear-body%29        
23    wall                motorBike_fuel-tank%30        
24    wall                motorBike_exhaust%31          
25    wall                motorBike_rr-wh-rim%32        
26    wall                motorBike_fr-mud-guard%33     
27    wall                motorBike_fr-wh-rim%34        
28    wall                motorBike_fr-wh-brake-disk%35 
29    wall                motorBike_fr-brake-caliper%36 
30    wall                motorBike_fr-wh-tyre%37       
31    wall                motorBike_hbars%38            
32    wall                motorBike_fr-forks%39         
33    wall                motorBike_chain%40            
34    wall                motorBike_rr-wh-tyre%41       
35    wall                motorBike_square-dial%42      
36    wall                motorBike_round-dial%43       
37    wall                motorBike_dial-holder%44      
38    wall                motorBike_rear-susp%45        
39    wall                motorBike_rear-brake-lights%46
40    wall                motorBike_rear-light-bracket%47
41    wall                motorBike_frame%48            
42    wall                motorBike_rear-mud-guard%49   
43    wall                motorBike_rear-susp-spring-damp%50
44    wall                motorBike_fairing-inner-plate%51
45    wall                motorBike_clutch-housing%52   
46    wall                motorBike_radiator%53         
47    wall                motorBike_water-pipe%54       
48    wall                motorBike_water-pump%55       
49    wall                motorBike_engine%56           
50    wall                motorBike_rear-shock-link%57  
51    wall                motorBike_rear-brake-fluid-pot-bracket%58
52    wall                motorBike_rear-brake-fluid-pot%59
53    wall                motorBike_footpeg%60          
54    wall                motorBike_rr-wh-chain-hub%61  
55    wall                motorBike_rear-brake-caliper%62
56    wall                motorBike_rider-helmet%65     
57    wall                motorBike_rider-visor%66      
58    wall                motorBike_rider-boots%67      
59    wall                motorBike_rider-gloves%68     
60    wall                motorBike_rider-body%69       
61    wall                motorBike_frame:0%70          
62    wall                motorBike_frt-fairing:001-shadow%74
63    wall                motorBike_windshield-shadow%75
64    wall                motorBike_fr-mud-guard-shadow%81
65    wall                motorBike_fr-wh-brake-disk-shadow%83
66    wall                motorBike_rear-mud-guard-shadow%84
67    wall                motorBike_rear-susp-spring-damp-shadow%85
68    wall                motorBike_radiator-shadow%86  
69    wall                motorBike_rear-shock-link-shadow%87
70    wall                motorBike_rear-brake-fluid-pot-bracket-shadow%88
[1]  Foam::decompositionMethod::New 
[1] {
[1]     numberOfSubdomains 56;
[1]     method          scotch;
[1]     simpleCoeffs
[1]     {
[1]         n               ( 4 1 1 );
[1]         delta           0.001;
[1]     }
[1]     hierarchicalCoeffs
[1]     {
[1]         n               ( 3 2 1 );
[1]         delta           0.001;
[1]         order           xyz;
[1]     }
[1]     manualCoeffs
[1]     {
[1]         dataFile        "cellDecomposition";
[1]     }
[1] }
[1] 
[1] Selecting decompositionMethod scotch
[2]  Foam::decompositionMethod::New 
[2] {
[2]     numberOfSubdomains 56;
[2]     method          scotch;
[2]     simpleCoeffs
[2]     {
[2]         n               ( 4 1 1 );
[2]         delta           0.001;
[2]     }
[2]     hierarchicalCoeffs
[2]     {
[2]         n               ( 3 2 1 );
[2]         delta           0.001;
[2]         order           xyz;
[2]     }
[2]     manualCoeffs
[2]     {
[2]         dataFile        "cellDecomposition";
[2]     }
[2] }
[2] 
[2] Selecting decompositionMethod scotch
[3]  Foam::decompositionMethod::New 
[3] {
[3]     numberOfSubdomains 56;
[3]     method          scotch;
[3]     simpleCoeffs
[3]     {
[3]         n               ( 4 1 1 );
[3]         delta           0.001;
[3]     }
[3]     hierarchicalCoeffs
[3]     {
[3]         n               ( 3 2 1 );
[3]         delta           0.001;
[3]         order           xyz;
[3]     }
[3]     manualCoeffs
[3]     {
[3]         dataFile        "cellDecomposition";
[3]     }
[3] }
[3] 
[3] Selecting decompositionMethod scotch
[4]  Foam::decompositionMethod::New 
[4] {
[4]     numberOfSubdomains 56;
[4]     method          scotch;
[4]     simpleCoeffs
[4]     {
[4]         n               ( 4 1 1 );
[4]         delta           0.001;
[4]     }
[4]     hierarchicalCoeffs
[4]     {
[4]         n               ( 3 2 1 );
[4]         delta           0.001;
[4]         order           xyz;
[4]     }
[4]     manualCoeffs
[4]     {
[4]         dataFile        "cellDecomposition";
[4]     }
[4] }
[4] 
[4] Selecting decompositionMethod scotch
[5]  Foam::decompositionMethod::New 
[5] {
[5]     numberOfSubdomains 56;
[5]     method          scotch;
[5]     simpleCoeffs
[5]     {
[5]         n               ( 4 1 1 );
[5]         delta           0.001;
[5]     }
[5]     hierarchicalCoeffs
[5]     {
[5]         n               ( 3 2 1 );
[5]         delta           0.001;
[5]         order           xyz;
[5]     }
[5]     manualCoeffs
[5]     {
[5]         dataFile        "cellDecomposition";
[5]     }
[5] }
[5] 
[5] Selecting decompositionMethod scotch
[6]  Foam::decompositionMethod::New 
[6] {
[6]     numberOfSubdomains 56;
[6]     method          scotch;
[6]     simpleCoeffs
[6]     {
[6]         n               ( 4 1 1 );
[6]         delta           0.001;
[6]     }
[6]     hierarchicalCoeffs
[6]     {
[6]         n               ( 3 2 1 );
[6]         delta           0.001;
[6]         order           xyz;
[6]     }
[6]     manualCoeffs
[6]     {
[6]         dataFile        "cellDecomposition";
[6]     }
[6] }
[6] 
[6] Selecting decompositionMethod scotch
[7]  Foam::decompositionMethod::New 
[7] {
[7]     numberOfSubdomains 56;
[7]     method          scotch;
[7]     simpleCoeffs
[7]     {
[7]         n               ( 4 1 1 );
[7]         delta           0.001;
[7]     }
[7]     hierarchicalCoeffs
[7]     {
[7]         n               ( 3 2 1 );
[7]         delta           0.001;
[7]         order           xyz;
[7]     }
[7]     manualCoeffs
[7]     {
[7]         dataFile        "cellDecomposition";
[7]     }
[7] }
[7] 
[7] Selecting decompositionMethod scotch
[8]  Foam::decompositionMethod::New 
[8] {
[8]     numberOfSubdomains 56;
[8]     method          scotch;
[8]     simpleCoeffs
[8]     {
[8]         n               ( 4 1 1 );
[8]         delta           0.001;
[8]     }
[8]     hierarchicalCoeffs
[8]     {
[8]         n               ( 3 2 1 );
[8]         delta           0.001;
[8]         order           xyz;
[8]     }
[8]     manualCoeffs
[8]     {
[8]         dataFile        "cellDecomposition";
[8]     }
[8] }
[8] 
[8] Selecting decompositionMethod scotch
[9]  Foam::decompositionMethod::New 
[9] {
[9]     numberOfSubdomains 56;
[9]     method          scotch;
[9]     simpleCoeffs
[9]     {
[9]         n               ( 4 1 1 );
[9]         delta           0.001;
[9]     }
[9]     hierarchicalCoeffs
[9]     {
[9]         n               ( 3 2 1 );
[9]         delta           0.001;
[9]         order           xyz;
[9]     }
[9]     manualCoeffs
[9]     {
[9]         dataFile        "cellDecomposition";
[9]     }
[9] }
[9] 
[9] Selecting decompositionMethod scotch
[10]  Foam::decompositionMethod::New 
[10] {
[10]     numberOfSubdomains 56;
[10]     method          scotch;
[10]     simpleCoeffs
[10]     {
[10]         n               ( 4 1 1 );
[10]         delta           0.001;
[10]     }
[10]     hierarchicalCoeffs
[10]     {
[10]         n               ( 3 2 1 );
[10]         delta           0.001;
[10]         order           xyz;
[10]     }
[10]     manualCoeffs
[10]     {
[10]         dataFile        "cellDecomposition";
[10]     }
[10] }
[10] 
[10] Selecting decompositionMethod scotch
[11]  Foam::decompositionMethod::New 
[11] {
[11]     numberOfSubdomains 56;
[11]     method          scotch;
[11]     simpleCoeffs
[11]     {
[11]         n               ( 4 1 1 );
[11]         delta           0.001;
[11]     }
[11]     hierarchicalCoeffs
[11]     {
[11]         n               ( 3 2 1 );
[11]         delta           0.001;
[11]         order           xyz;
[11]     }
[11]     manualCoeffs
[11]     {
[11]         dataFile        "cellDecomposition";
[11]     }
[11] }
[11] 
[11] Selecting decompositionMethod scotch
[12]  Foam::decompositionMethod::New 
[12] {
[12]     numberOfSubdomains 56;
[12]     method          scotch;
[12]     simpleCoeffs
[12]     {
[12]         n               ( 4 1 1 );
[12]         delta           0.001;
[12]     }
[12]     hierarchicalCoeffs
[12]     {
[12]         n               ( 3 2 1 );
[12]         delta           0.001;
[12]         order           xyz;
[12]     }
[12]     manualCoeffs
[12]     {
[12]         dataFile        "cellDecomposition";
[12]     }
[12] }
[12] 
[12] Selecting decompositionMethod scotch
[13]  Foam::decompositionMethod::New 
[13] {
[13]     numberOfSubdomains 56;
[13]     method          scotch;
[13]     simpleCoeffs
[13]     {
[13]         n               ( 4 1 1 );
[13]         delta           0.001;
[13]     }
[13]     hierarchicalCoeffs
[13]     {
[13]         n               ( 3 2 1 );
[13]         delta           0.001;
[13]         order           xyz;
[13]     }
[13]     manualCoeffs
[13]     {
[13]         dataFile        "cellDecomposition";
[13]     }
[13] }
[13] 
[13] Selecting decompositionMethod scotch
[14]  Foam::decompositionMethod::New 
[14] {
[14]     numberOfSubdomains 56;
[14]     method          scotch;
[14]     simpleCoeffs
[14]     {
[14]         n               ( 4 1 1 );
[14]         delta           0.001;
[14]     }
[14]     hierarchicalCoeffs
[14]     {
[14]         n               ( 3 2 1 );
[14]         delta           0.001;
[14]         order           xyz;
[14]     }
[14]     manualCoeffs
[14]     {
[14]         dataFile        "cellDecomposition";
[14]     }
[14] }
[14] 
[14] Selecting decompositionMethod scotch
[15]  Foam::decompositionMethod::New 
[15] {
[15]     numberOfSubdomains 56;
[15]     method          scotch;
[15]     simpleCoeffs
[15]     {
[15]         n               ( 4 1 1 );
[15]         delta           0.001;
[15]     }
[15]     hierarchicalCoeffs
[15]     {
[15]         n               ( 3 2 1 );
[15]         delta           0.001;
[15]         order           xyz;
[15]     }
[15]     manualCoeffs
[15]     {
[15]         dataFile        "cellDecomposition";
[15]     }
[15] }
[15] 
[15] Selecting decompositionMethod scotch
[16]  Foam::decompositionMethod::New 
[16] {
[16]     numberOfSubdomains 56;
[16]     method          scotch;
[16]     simpleCoeffs
[16]     {
[16]         n               ( 4 1 1 );
[16]         delta           0.001;
[16]     }
[16]     hierarchicalCoeffs
[16]     {
[16]         n               ( 3 2 1 );
[16]         delta           0.001;
[16]         order           xyz;
[16]     }
[16]     manualCoeffs
[16]     {
[16]         dataFile        "cellDecomposition";
[16]     }
[16] }
[16] 
[16] Selecting decompositionMethod scotch
[17]  Foam::decompositionMethod::New 
[17] {
[17]     numberOfSubdomains 56;
[17]     method          scotch;
[17]     simpleCoeffs
[17]     {
[17]         n               ( 4 1 1 );
[17]         delta           0.001;
[17]     }
[17]     hierarchicalCoeffs
[17]     {
[17]         n               ( 3 2 1 );
[17]         delta           0.001;
[17]         order           xyz;
[17]     }
[17]     manualCoeffs
[17]     {
[17]         dataFile        "cellDecomposition";
[17]     }
[17] }
[17] 
[17] Selecting decompositionMethod scotch
[18]  Foam::decompositionMethod::New 
[18] {
[18]     numberOfSubdomains 56;
[18]     method          scotch;
[18]     simpleCoeffs
[18]     {
[18]         n               ( 4 1 1 );
[18]         delta           0.001;
[18]     }
[18]     hierarchicalCoeffs
[18]     {
[18]         n               ( 3 2 1 );
[18]         delta           0.001;
[18]         order           xyz;
[18]     }
[18]     manualCoeffs
[18]     {
[18]         dataFile        "cellDecomposition";
[18]     }
[18] }
[18] 
[18] Selecting decompositionMethod scotch
[19]  Foam::decompositionMethod::New 
[19] {
[19]     numberOfSubdomains 56;
[19]     method          scotch;
[19]     simpleCoeffs
[19]     {
[19]         n               ( 4 1 1 );
[19]         delta           0.001;
[19]     }
[19]     hierarchicalCoeffs
[19]     {
[19]         n               ( 3 2 1 );
[19]         delta           0.001;
[19]         order           xyz;
[19]     }
[19]     manualCoeffs
[19]     {
[19]         dataFile        "cellDecomposition";
[19]     }
[19] }
[19] 
[19] Selecting decompositionMethod scotch
[20]  Foam::decompositionMethod::New 
[20] {
[20]     numberOfSubdomains 56;
[20]     method          scotch;
[20]     simpleCoeffs
[20]     {
[20]         n               ( 4 1 1 );
[20]         delta           0.001;
[20]     }
[20]     hierarchicalCoeffs
[20]     {
[20]         n               ( 3 2 1 );
[20]         delta           0.001;
[20]         order           xyz;
[20]     }
[20]     manualCoeffs
[20]     {
[20]         dataFile        "cellDecomposition";
[20]     }
[20] }
[20] 
[20] Selecting decompositionMethod scotch
[21]  Foam::decompositionMethod::New 
[21] {
[21]     numberOfSubdomains 56;
[21]     method          scotch;
[21]     simpleCoeffs
[21]     {
[21]         n               ( 4 1 1 );
[21]         delta           0.001;
[21]     }
[21]     hierarchicalCoeffs
[21]     {
[21]         n               ( 3 2 1 );
[21]         delta           0.001;
[21]         order           xyz;
[21]     }
[21]     manualCoeffs
[21]     {
[21]         dataFile        "cellDecomposition";
[21]     }
[21] }
[21] 
[21] Selecting decompositionMethod scotch
[22]  Foam::decompositionMethod::New 
[22] {
[22]     numberOfSubdomains 56;
[22]     method          scotch;
[22]     simpleCoeffs
[22]     {
[22]         n               ( 4 1 1 );
[22]         delta           0.001;
[22]     }
[22]     hierarchicalCoeffs
[22]     {
[22]         n               ( 3 2 1 );
[22]         delta           0.001;
[22]         order           xyz;
[22]     }
[22]     manualCoeffs
[22]     {
[22]         dataFile        "cellDecomposition";
[22]     }
[22] }
[22] 
[22] Selecting decompositionMethod scotch
[23]  Foam::decompositionMethod::New 
[23] {
[23]     numberOfSubdomains 56;
[23]     method          scotch;
[23]     simpleCoeffs
[23]     {
[23]         n               ( 4 1 1 );
[23]         delta           0.001;
[23]     }
[23]     hierarchicalCoeffs
[23]     {
[23]         n               ( 3 2 1 );
[23]         delta           0.001;
[23]         order           xyz;
[23]     }
[23]     manualCoeffs
[23]     {
[23]         dataFile        "cellDecomposition";
[23]     }
[23] }
[23] 
[23] Selecting decompositionMethod scotch
[24]  Foam::decompositionMethod::New 
[24] {
[24]     numberOfSubdomains 56;
[24]     method          scotch;
[24]     simpleCoeffs
[24]     {
[24]         n               ( 4 1 1 );
[24]         delta           0.001;
[24]     }
[24]     hierarchicalCoeffs
[24]     {
[24]         n               ( 3 2 1 );
[24]         delta           0.001;
[24]         order           xyz;
[24]     }
[24]     manualCoeffs
[24]     {
[24]         dataFile        "cellDecomposition";
[24]     }
[24] }
[24] 
[24] Selecting decompositionMethod scotch
[25]  Foam::decompositionMethod::New 
[25] {
[25]     numberOfSubdomains 56;
[25]     method          scotch;
[25]     simpleCoeffs
[25]     {
[25]         n               ( 4 1 1 );
[25]         delta           0.001;
[25]     }
[25]     hierarchicalCoeffs
[25]     {
[25]         n               ( 3 2 1 );
[25]         delta           0.001;
[25]         order           xyz;
[25]     }
[25]     manualCoeffs
[25]     {
[25]         dataFile        "cellDecomposition";
[25]     }
[25] }
[25] 
[25] Selecting decompositionMethod scotch
[26]  Foam::decompositionMethod::New 
[26] {
[26]     numberOfSubdomains 56;
[26]     method          scotch;
[26]     simpleCoeffs
[26]     {
[26]         n               ( 4 1 1 );
[26]         delta           0.001;
[26]     }
[26]     hierarchicalCoeffs
[26]     {
[26]         n               ( 3 2 1 );
[26]         delta           0.001;
[26]         order           xyz;
[26]     }
[26]     manualCoeffs
[26]     {
[26]         dataFile        "cellDecomposition";
[26]     }
[26] }
[26] 
[26] Selecting decompositionMethod scotch
[27]  Foam::decompositionMethod::New 
[27] {
[27]     numberOfSubdomains 56;
[27]     method          scotch;
[27]     simpleCoeffs
[27]     {
[27]         n               ( 4 1 1 );
[27]         delta           0.001;
[27]     }
[27]     hierarchicalCoeffs
[27]     {
[27]         n               ( 3 2 1 );
[27]         delta           0.001;
[27]         order           xyz;
[27]     }
[27]     manualCoeffs
[27]     {
[27]         dataFile        "cellDecomposition";
[27]     }
[27] }
[27] 
[27] Selecting decompositionMethod scotch
[28]  Foam::decompositionMethod::New 
[28] {
[28]     numberOfSubdomains 56;
[28]     method          scotch;
[28]     simpleCoeffs
[28]     {
[28]         n               ( 4 1 1 );
[28]         delta           0.001;
[28]     }
[28]     hierarchicalCoeffs
[28]     {
[28]         n               ( 3 2 1 );
[28]         delta           0.001;
[28]         order           xyz;
[28]     }
[28]     manualCoeffs
[28]     {
[28]         dataFile        "cellDecomposition";
[28]     }
[28] }
[28] 
[28] Selecting decompositionMethod scotch
[29]  Foam::decompositionMethod::New 
[29] {
[29]     numberOfSubdomains 56;
[29]     method          scotch;
[29]     simpleCoeffs
[29]     {
[29]         n               ( 4 1 1 );
[29]         delta           0.001;
[29]     }
[29]     hierarchicalCoeffs
[29]     {
[29]         n               ( 3 2 1 );
[29]         delta           0.001;
[29]         order           xyz;
[29]     }
[29]     manualCoeffs
[29]     {
[29]         dataFile        "cellDecomposition";
[29]     }
[29] }
[29] 
[29] Selecting decompositionMethod scotch
[30]  Foam::decompositionMethod::New 
[30] {
[30]     numberOfSubdomains 56;
[30]     method          scotch;
[30]     simpleCoeffs
[30]     {
[30]         n               ( 4 1 1 );
[30]         delta           0.001;
[30]     }
[30]     hierarchicalCoeffs
[30]     {
[30]         n               ( 3 2 1 );
[30]         delta           0.001;
[30]         order           xyz;
[30]     }
[30]     manualCoeffs
[30]     {
[30]         dataFile        "cellDecomposition";
[30]     }
[30] }
[30] 
[30] Selecting decompositionMethod scotch
[31]  Foam::decompositionMethod::New 
[31] {
[31]     numberOfSubdomains 56;
[31]     method          scotch;
[31]     simpleCoeffs
[31]     {
[31]         n               ( 4 1 1 );
[31]         delta           0.001;
[31]     }
[31]     hierarchicalCoeffs
[31]     {
[31]         n               ( 3 2 1 );
[31]         delta           0.001;
[31]         order           xyz;
[31]     }
[31]     manualCoeffs
[31]     {
[31]         dataFile        "cellDecomposition";
[31]     }
[31] }
[31] 
[31] Selecting decompositionMethod scotch
[32]  Foam::decompositionMethod::New 
[32] {
[32]     numberOfSubdomains 56;
[32]     method          scotch;
[32]     simpleCoeffs
[32]     {
[32]         n               ( 4 1 1 );
[32]         delta           0.001;
[32]     }
[32]     hierarchicalCoeffs
[32]     {
[32]         n               ( 3 2 1 );
[32]         delta           0.001;
[32]         order           xyz;
[32]     }
[32]     manualCoeffs
[32]     {
[32]         dataFile        "cellDecomposition";
[32]     }
[32] }
[32] 
[32] Selecting decompositionMethod scotch
[33]  Foam::decompositionMethod::New 
[33] {
[33]     numberOfSubdomains 56;
[33]     method          scotch;
[33]     simpleCoeffs
[33]     {
[33]         n               ( 4 1 1 );
[33]         delta           0.001;
[33]     }
[33]     hierarchicalCoeffs
[33]     {
[33]         n               ( 3 2 1 );
[33]         delta           0.001;
[33]         order           xyz;
[33]     }
[33]     manualCoeffs
[33]     {
[33]         dataFile        "cellDecomposition";
[33]     }
[33] }
[33] 
[33] Selecting decompositionMethod scotch
[34]  Foam::decompositionMethod::New 
[34] {
[34]     numberOfSubdomains 56;
[34]     method          scotch;
[34]     simpleCoeffs
[34]     {
[34]         n               ( 4 1 1 );
[34]         delta           0.001;
[34]     }
[34]     hierarchicalCoeffs
[34]     {
[34]         n               ( 3 2 1 );
[34]         delta           0.001;
[34]         order           xyz;
[34]     }
[34]     manualCoeffs
[34]     {
[34]         dataFile        "cellDecomposition";
[34]     }
[34] }
[34] 
[34] Selecting decompositionMethod scotch
[35]  Foam::decompositionMethod::New 
[35] {
[35]     numberOfSubdomains 56;
[35]     method          scotch;
[35]     simpleCoeffs
[35]     {
[35]         n               ( 4 1 1 );
[35]         delta           0.001;
[35]     }
[35]     hierarchicalCoeffs
[35]     {
[35]         n               ( 3 2 1 );
[35]         delta           0.001;
[35]         order           xyz;
[35]     }
[35]     manualCoeffs
[35]     {
[35]         dataFile        "cellDecomposition";
[35]     }
[35] }
[35] 
[35] Selecting decompositionMethod scotch
[36]  Foam::decompositionMethod::New 
[36] {
[36]     numberOfSubdomains 56;
[36]     method          scotch;
[36]     simpleCoeffs
[36]     {
[36]         n               ( 4 1 1 );
[36]         delta           0.001;
[36]     }
[36]     hierarchicalCoeffs
[36]     {
[36]         n               ( 3 2 1 );
[36]         delta           0.001;
[36]         order           xyz;
[36]     }
[36]     manualCoeffs
[36]     {
[36]         dataFile        "cellDecomposition";
[36]     }
[36] }
[36] 
[36] Selecting decompositionMethod scotch
[37]  Foam::decompositionMethod::New 
[37] {
[37]     numberOfSubdomains 56;
[37]     method          scotch;
[37]     simpleCoeffs
[37]     {
[37]         n               ( 4 1 1 );
[37]         delta           0.001;
[37]     }
[37]     hierarchicalCoeffs
[37]     {
[37]         n               ( 3 2 1 );
[37]         delta           0.001;
[37]         order           xyz;
[37]     }
[37]     manualCoeffs
[37]     {
[37]         dataFile        "cellDecomposition";
[37]     }
[37] }
[37] 
[37] Selecting decompositionMethod scotch
[38]  Foam::decompositionMethod::New 
[38] {
[38]     numberOfSubdomains 56;
[38]     method          scotch;
[38]     simpleCoeffs
[38]     {
[38]         n               ( 4 1 1 );
[38]         delta           0.001;
[38]     }
[38]     hierarchicalCoeffs
[38]     {
[38]         n               ( 3 2 1 );
[38]         delta           0.001;
[38]         order           xyz;
[38]     }
[38]     manualCoeffs
[38]     {
[38]         dataFile        "cellDecomposition";
[38]     }
[38] }
[38] 
[38] Selecting decompositionMethod scotch
[39]  Foam::decompositionMethod::New 
[39] {
[39]     numberOfSubdomains 56;
[39]     method          scotch;
[39]     simpleCoeffs
[39]     {
[39]         n               ( 4 1 1 );
[39]         delta           0.001;
[39]     }
[39]     hierarchicalCoeffs
[39]     {
[39]         n               ( 3 2 1 );
[39]         delta           0.001;
[39]         order           xyz;
[39]     }
[39]     manualCoeffs
[39]     {
[39]         dataFile        "cellDecomposition";
[39]     }
[39] }
[39] 
[39] Selecting decompositionMethod scotch
[40]  Foam::decompositionMethod::New 
[40] {
[40]     numberOfSubdomains 56;
[40]     method          scotch;
[40]     simpleCoeffs
[40]     {
[40]         n               ( 4 1 1 );
[40]         delta           0.001;
[40]     }
[40]     hierarchicalCoeffs
[40]     {
[40]         n               ( 3 2 1 );
[40]         delta           0.001;
[40]         order           xyz;
[40]     }
[40]     manualCoeffs
[40]     {
[40]         dataFile        "cellDecomposition";
[40]     }
[40] }
[40] 
[40] Selecting decompositionMethod scotch
[41]  Foam::decompositionMethod::New 
[41] {
[41]     numberOfSubdomains 56;
[41]     method          scotch;
[41]     simpleCoeffs
[41]     {
[41]         n               ( 4 1 1 );
[41]         delta           0.001;
[41]     }
[41]     hierarchicalCoeffs
[41]     {
[41]         n               ( 3 2 1 );
[41]         delta           0.001;
[41]         order           xyz;
[41]     }
[41]     manualCoeffs
[41]     {
[41]         dataFile        "cellDecomposition";
[41]     }
[41] }
[41] 
[41] Selecting decompositionMethod scotch
[42]  Foam::decompositionMethod::New 
[42] {
[42]     numberOfSubdomains 56;
[42]     method          scotch;
[42]     simpleCoeffs
[42]     {
[42]         n               ( 4 1 1 );
[42]         delta           0.001;
[42]     }
[42]     hierarchicalCoeffs
[42]     {
[42]         n               ( 3 2 1 );
[42]         delta           0.001;
[42]         order           xyz;
[42]     }
[42]     manualCoeffs
[42]     {
[42]         dataFile        "cellDecomposition";
[42]     }
[42] }
[42] 
[42] Selecting decompositionMethod scotch
[43]  Foam::decompositionMethod::New 
[43] {
[43]     numberOfSubdomains 56;
[43]     method          scotch;
[43]     simpleCoeffs
[43]     {
[43]         n               ( 4 1 1 );
[43]         delta           0.001;
[43]     }
[43]     hierarchicalCoeffs
[43]     {
[43]         n               ( 3 2 1 );
[43]         delta           0.001;
[43]         order           xyz;
[43]     }
[43]     manualCoeffs
[43]     {
[43]         dataFile        "cellDecomposition";
[43]     }
[43] }
[43] 
[43] Selecting decompositionMethod scotch
[44]  Foam::decompositionMethod::New 
[44] {
[44]     numberOfSubdomains 56;
[44]     method          scotch;
[44]     simpleCoeffs
[44]     {
[44]         n               ( 4 1 1 );
[44]         delta           0.001;
[44]     }
[44]     hierarchicalCoeffs
[44]     {
[44]         n               ( 3 2 1 );
[44]         delta           0.001;
[44]         order           xyz;
[44]     }
[44]     manualCoeffs
[44]     {
[44]         dataFile        "cellDecomposition";
[44]     }
[44] }
[44] 
[44] Selecting decompositionMethod scotch
[45]  Foam::decompositionMethod::New 
[45] {
[45]     numberOfSubdomains 56;
[45]     method          scotch;
[45]     simpleCoeffs
[45]     {
[45]         n               ( 4 1 1 );
[45]         delta           0.001;
[45]     }
[45]     hierarchicalCoeffs
[45]     {
[45]         n               ( 3 2 1 );
[45]         delta           0.001;
[45]         order           xyz;
[45]     }
[45]     manualCoeffs
[45]     {
[45]         dataFile        "cellDecomposition";
[45]     }
[45] }
[45] 
[45] Selecting decompositionMethod scotch
[46]  Foam::decompositionMethod::New 
[46] {
[46]     numberOfSubdomains 56;
[46]     method          scotch;
[46]     simpleCoeffs
[46]     {
[46]         n               ( 4 1 1 );
[46]         delta           0.001;
[46]     }
[46]     hierarchicalCoeffs
[46]     {
[46]         n               ( 3 2 1 );
[46]         delta           0.001;
[46]         order           xyz;
[46]     }
[46]     manualCoeffs
[46]     {
[46]         dataFile        "cellDecomposition";
[46]     }
[46] }
[46] 
[46] Selecting decompositionMethod scotch
[47]  Foam::decompositionMethod::New 
[47] {
[47]     numberOfSubdomains 56;
[47]     method          scotch;
[47]     simpleCoeffs
[47]     {
[47]         n               ( 4 1 1 );
[47]         delta           0.001;
[47]     }
[47]     hierarchicalCoeffs
[47]     {
[47]         n               ( 3 2 1 );
[47]         delta           0.001;
[47]         order           xyz;
[47]     }
[47]     manualCoeffs
[47]     {
[47]         dataFile        "cellDecomposition";
[47]     }
[47] }
[47] 
[47] Selecting decompositionMethod scotch
[48]  Foam::decompositionMethod::New 
[48] {
[48]     numberOfSubdomains 56;
[48]     method          scotch;
[48]     simpleCoeffs
[48]     {
[48]         n               ( 4 1 1 );
[48]         delta           0.001;
[48]     }
[48]     hierarchicalCoeffs
[48]     {
[48]         n               ( 3 2 1 );
[48]         delta           0.001;
[48]         order           xyz;
[48]     }
[48]     manualCoeffs
[48]     {
[48]         dataFile        "cellDecomposition";
[48]     }
[48] }
[48] 
[48] Selecting decompositionMethod scotch
[49]  Foam::decompositionMethod::New 
[49] {
[49]     numberOfSubdomains 56;
[49]     method          scotch;
[49]     simpleCoeffs
[49]     {
[49]         n               ( 4 1 1 );
[49]         delta           0.001;
[49]     }
[49]     hierarchicalCoeffs
[49]     {
[49]         n               ( 3 2 1 );
[49]         delta           0.001;
[49]         order           xyz;
[49]     }
[49]     manualCoeffs
[49]     {
[49]         dataFile        "cellDecomposition";
[49]     }
[49] }
[49] 
[49] Selecting decompositionMethod scotch
[50]  Foam::decompositionMethod::New 
[50] {
[50]     numberOfSubdomains 56;
[50]     method          scotch;
[50]     simpleCoeffs
[50]     {
[50]         n               ( 4 1 1 );
[50]         delta           0.001;
[50]     }
[50]     hierarchicalCoeffs
[50]     {
[50]         n               ( 3 2 1 );
[50]         delta           0.001;
[50]         order           xyz;
[50]     }
[50]     manualCoeffs
[50]     {
[50]         dataFile        "cellDecomposition";
[50]     }
[50] }
[50] 
[50] Selecting decompositionMethod scotch
[51]  Foam::decompositionMethod::New 
[51] {
[51]     numberOfSubdomains 56;
[51]     method          scotch;
[51]     simpleCoeffs
[51]     {
[51]         n               ( 4 1 1 );
[51]         delta           0.001;
[51]     }
[51]     hierarchicalCoeffs
[51]     {
[51]         n               ( 3 2 1 );
[51]         delta           0.001;
[51]         order           xyz;
[51]     }
[51]     manualCoeffs
[51]     {
[51]         dataFile        "cellDecomposition";
[51]     }
[51] }
[51] 
[51] Selecting decompositionMethod scotch
[52]  Foam::decompositionMethod::New 
[52] {
[52]     numberOfSubdomains 56;
[52]     method          scotch;
[52]     simpleCoeffs
[52]     {
[52]         n               ( 4 1 1 );
[52]         delta           0.001;
[52]     }
[52]     hierarchicalCoeffs
[52]     {
[52]         n               ( 3 2 1 );
[52]         delta           0.001;
[52]         order           xyz;
[52]     }
[52]     manualCoeffs
[52]     {
[52]         dataFile        "cellDecomposition";
[52]     }
[52] }
[52] 
[52] Selecting decompositionMethod scotch
[53]  Foam::decompositionMethod::New 
[53] {
[53]     numberOfSubdomains 56;
[53]     method          scotch;
[53]     simpleCoeffs
[53]     {
[53]         n               ( 4 1 1 );
[53]         delta           0.001;
[53]     }
[53]     hierarchicalCoeffs
[53]     {
[53]         n               ( 3 2 1 );
[53]         delta           0.001;
[53]         order           xyz;
[53]     }
[53]     manualCoeffs
[53]     {
[53]         dataFile        "cellDecomposition";
[53]     }
[53] }
[53] 
[53] Selecting decompositionMethod scotch
[54]  Foam::decompositionMethod::New 
[54] {
[54]     numberOfSubdomains 56;
[54]     method          scotch;
[54]     simpleCoeffs
[54]     {
[54]         n               ( 4 1 1 );
[54]         delta           0.001;
[54]     }
[54]     hierarchicalCoeffs
[54]     {
[54]         n               ( 3 2 1 );
[54]         delta           0.001;
[54]         order           xyz;
[54]     }
[54]     manualCoeffs
[54]     {
[54]         dataFile        "cellDecomposition";
[54]     }
[54] }
[54] 
[54] Selecting decompositionMethod scotch
[55]  Foam::decompositionMethod::New 
[55] {
[55]     numberOfSubdomains 56;
[55]     method          scotch;
[55]     simpleCoeffs
[55]     {
[55]         n               ( 4 1 1 );
[55]         delta           0.001;
[55]     }
[55]     hierarchicalCoeffs
[55]     {
[55]         n               ( 3 2 1 );
[55]         delta           0.001;
[55]         order           xyz;
[55]     }
[55]     manualCoeffs
[55]     {
[55]         dataFile        "cellDecomposition";
[55]     }
[55] }
[55] 
[55] Selecting decompositionMethod scotch
71    wall                motorBike_rr-wh-chain-hub-shadow%89

Added patches in = 0.08 s

[0]  Foam::decompositionMethod::New 
[0] {
[0]     numberOfSubdomains 56;
[0]     method          scotch;
[0]     simpleCoeffs
[0]     {
[0]         n               ( 4 1 1 );
[0]         delta           0.001;
[0]     }
[0]     hierarchicalCoeffs
[0]     {
[0]         n               ( 3 2 1 );
[0]         delta           0.001;
[0]         order           xyz;
[0]     }
[0]     manualCoeffs
[0]     {
[0]         dataFile        "cellDecomposition";
[0]     }
[0] }
[0] 
[0] Selecting decompositionMethod scotch
Layer thickness specified as final layer and expansion ratio.

Refinement phase
----------------

Found point (3.0001 3.0001 0.43) in cell 16 on processor 42

Feature refinement iteration 0
------------------------------

Marked for refinement due to explicit features             : 26 cells.
Determined cells to refine in = 0.08 s
Selected for feature refinement : 26 cells (out of 10240)
Edge intersection testing:
    Number of edges             : 32895
    Number of edges to retest   : 920
    Number of intersected edges : 127
Refined mesh in = 0.01 s
After refinement feature refinement iteration 0 : cells:10422  faces:32895  points:12135
Cells per refinement level:
    0	10214
    1	208
Balanced mesh in = 0.19 s
After balancing feature refinement iteration 0 : cells:10422  faces:32895  points:12135
Cells per refinement level:
    0	10214
    1	208

Feature refinement iteration 1
------------------------------

Marked for refinement due to explicit features             : 100 cells.
Determined cells to refine in = 0.06 s
Selected for feature refinement : 116 cells (out of 10422)
Edge intersection testing:
    Number of edges             : 35637
    Number of edges to retest   : 3652
    Number of intersected edges : 726
Refined mesh in = 0.02 s
After refinement feature refinement iteration 1 : cells:11234  faces:35637  points:13274
Cells per refinement level:
    0	10198
    1	236
    2	800
Balanced mesh in = 0.16 s
After balancing feature refinement iteration 1 : cells:11234  faces:35637  points:13274
Cells per refinement level:
    0	10198
    1	236
    2	800

Feature refinement iteration 2
------------------------------

Marked for refinement due to explicit features             : 447 cells.
Determined cells to refine in = 0.11 s
Selected for feature refinement : 531 cells (out of 11234)
Edge intersection testing:
    Number of edges             : 47952
    Number of edges to retest   : 16009
    Number of intersected edges : 3115
Refined mesh in = 0.02 s
After refinement feature refinement iteration 2 : cells:14951  faces:47952  points:18169
Cells per refinement level:
    0	10175
    1	359
    2	841
    3	3576
Balanced mesh in = 0.21 s
After balancing feature refinement iteration 2 : cells:14951  faces:47952  points:18169
Cells per refinement level:
    0	10175
    1	359
    2	841
    3	3576

Feature refinement iteration 3
------------------------------

Marked for refinement due to explicit features             : 1726 cells.
Determined cells to refine in = 0.06 s
Selected for feature refinement : 1999 cells (out of 14951)
Edge intersection testing:
    Number of edges             : 95388
    Number of edges to retest   : 62235
    Number of intersected edges : 11403
Refined mesh in = 0.05 s
After refinement feature refinement iteration 3 : cells:28944  faces:95388  points:37754
Cells per refinement level:
    0	10168
    1	380
    2	890
    3	3698
    4	13808
Balanced mesh in = 0.26 s
After balancing feature refinement iteration 3 : cells:28944  faces:95388  points:37754
Cells per refinement level:
    0	10168
    1	380
    2	890
    3	3698
    4	13808

Feature refinement iteration 4
------------------------------

Marked for refinement due to explicit features             : 5267 cells.
Determined cells to refine in = 0.07 s
Selected for feature refinement : 6709 cells (out of 28944)
Edge intersection testing:
    Number of edges             : 257892
    Number of edges to retest   : 222084
    Number of intersected edges : 36494
Refined mesh in = 0.06 s
After refinement feature refinement iteration 4 : cells:75907  faces:257892  points:107773
Cells per refinement level:
    0	10167
    1	371
    2	888
    3	3516
    4	18829
    5	42136
Balanced mesh in = 0.61 s
After balancing feature refinement iteration 4 : cells:75907  faces:257892  points:107773
Cells per refinement level:
    0	10167
    1	371
    2	888
    3	3516
    4	18829
    5	42136

Feature refinement iteration 5
------------------------------

Marked for refinement due to explicit features             : 13633 cells.
Determined cells to refine in = 0.09 s
Selected for feature refinement : 19632 cells (out of 75907)
Edge intersection testing:
    Number of edges             : 739599
    Number of edges to retest   : 688975
    Number of intersected edges : 103926
Refined mesh in = 0.12 s
After refinement feature refinement iteration 5 : cells:213331  faces:739599  points:320459
Cells per refinement level:
    0	10164
    1	378
    2	940
    3	3590
    4	18316
    5	70879
    6	109064
Balanced mesh in = 1.88 s
After balancing feature refinement iteration 5 : cells:213331  faces:739599  points:320459
Cells per refinement level:
    0	10164
    1	378
    2	940
    3	3590
    4	18316
    5	70879
    6	109064

Feature refinement iteration 6
------------------------------

Marked for refinement due to explicit features             : 0 cells.
Determined cells to refine in = 0.13 s
Selected for feature refinement : 0 cells (out of 213331)
Stopping refining since too few cells selected.


Surface refinement iteration 0
------------------------------

Marked for refinement due to surface intersection          : 5609 cells.
Marked for refinement due to curvature/regions             : 15945 cells.
Determined cells to refine in = 0.03 s
Selected for refinement : 22975 cells (out of 213331)
Edge intersection testing:
    Number of edges             : 1251348
    Number of edges to retest   : 967983
    Number of intersected edges : 151272
Refined mesh in = 0.17 s
After refinement surface refinement iteration 0 : cells:374156  faces:1251348  points:506461
Cells per refinement level:
    0	10162
    1	374
    2	1025
    3	3412
    4	18385
    5	104174
    6	236624
Balanced mesh in = 2.93 s
After balancing surface refinement iteration 0 : cells:374156  faces:1251348  points:506461
Cells per refinement level:
    0	10162
    1	374
    2	1025
    3	3412
    4	18385
    5	104174
    6	236624

Surface refinement iteration 1
------------------------------

Marked for refinement due to surface intersection          : 1968 cells.
Marked for refinement due to curvature/regions             : 7055 cells.
Determined cells to refine in = 0.06 s
Selected for refinement : 9672 cells (out of 374156)
Edge intersection testing:
    Number of edges             : 1471782
    Number of edges to retest   : 417071
    Number of intersected edges : 174988
Refined mesh in = 0.17 s
After refinement surface refinement iteration 1 : cells:441860  faces:1471782  points:590984
Cells per refinement level:
    0	10162
    1	370
    2	1029
    3	3403
    4	17897
    5	115935
    6	293064
Balanced mesh in = 3.26 s
After balancing surface refinement iteration 1 : cells:441860  faces:1471782  points:590984
Cells per refinement level:
    0	10162
    1	370
    2	1029
    3	3403
    4	17897
    5	115935
    6	293064

Surface refinement iteration 2
------------------------------

Marked for refinement due to surface intersection          : 301 cells.
Marked for refinement due to curvature/regions             : 1358 cells.
Determined cells to refine in = 0.06 s
Selected for refinement : 1774 cells (out of 441860)
Edge intersection testing:
    Number of edges             : 1512576
    Number of edges to retest   : 91985
    Number of intersected edges : 179258
Refined mesh in = 0.12 s
After refinement surface refinement iteration 2 : cells:454278  faces:1512576  points:606889
Cells per refinement level:
    0	10162
    1	370
    2	1027
    3	3390
    4	17744
    5	117657
    6	303928
Balanced mesh in = 3.32 s
After balancing surface refinement iteration 2 : cells:454278  faces:1512576  points:606889
Cells per refinement level:
    0	10162
    1	370
    2	1027
    3	3390
    4	17744
    5	117657
    6	303928

Surface refinement iteration 3
------------------------------

Marked for refinement due to surface intersection          : 6 cells.
Marked for refinement due to curvature/regions             : 110 cells.
Determined cells to refine in = 0.05 s
Selected for refinement : 135 cells (out of 454278)
Edge intersection testing:
    Number of edges             : 1515582
    Number of edges to retest   : 10607
    Number of intersected edges : 179414
Refined mesh in = 0.11 s
After refinement surface refinement iteration 3 : cells:455223  faces:1515582  points:607986
Cells per refinement level:
    0	10162
    1	370
    2	1027
    3	3386
    4	17755
    5	117715
    6	304808
Skipping balancing since max unbalance 0.0290354 is less than allowable 0.1

Surface refinement iteration 4
------------------------------

Marked for refinement due to surface intersection          : 0 cells.
Marked for refinement due to curvature/regions             : 7 cells.
Determined cells to refine in = 0.05 s
Selected for refinement : 8 cells (out of 455223)
Edge intersection testing:
    Number of edges             : 1515744
    Number of edges to retest   : 710
    Number of intersected edges : 179425
Refined mesh in = 0.17 s
After refinement surface refinement iteration 4 : cells:455279  faces:1515744  points:608032
Cells per refinement level:
    0	10162
    1	370
    2	1027
    3	3386
    4	17754
    5	117716
    6	304864
Skipping balancing since max unbalance 0.0289088 is less than allowable 0.1

Surface refinement iteration 5
------------------------------

Marked for refinement due to surface intersection          : 0 cells.
Marked for refinement due to curvature/regions             : 2 cells.
Determined cells to refine in = 0.06 s
Selected for refinement : 2 cells (out of 455279)
Edge intersection testing:
    Number of edges             : 1515786
    Number of edges to retest   : 182
    Number of intersected edges : 179428
Refined mesh in = 0.13 s
After refinement surface refinement iteration 5 : cells:455293  faces:1515786  points:608046
Cells per refinement level:
    0	10162
    1	370
    2	1027
    3	3386
    4	17754
    5	117714
    6	304880
Skipping balancing since max unbalance 0.0287823 is less than allowable 0.1

Surface refinement iteration 6
------------------------------

Marked for refinement due to surface intersection          : 0 cells.
Marked for refinement due to curvature/regions             : 0 cells.
Determined cells to refine in = 0.04 s
Selected for refinement : 0 cells (out of 455293)
Stopping refining since too few cells selected.


Removing mesh beyond surface intersections
------------------------------------------

Found point (3.0001 3.0001 0.43) in global region 0 out of 28 regions.
Keeping all cells in region 0 containing point (3.0001 3.0001 0.43)
Selected for keeping : 422754 cells.
Edge intersection testing:
    Number of edges             : 1441241
    Number of edges to retest   : 73100
    Number of intersected edges : 179429

Shell refinement iteration 0
----------------------------

Marked for refinement due to distance to explicit features : 0 cells.
Marked for refinement due to refinement shells             : 4703 cells.
Determined cells to refine in = 0.36 s
Selected for internal refinement : 63707 cells (out of 422754)
Edge intersection testing:
    Number of edges             : 2791583
    Number of edges to retest   : 2497925
    Number of intersected edges : 202002
Refined mesh in = 0.31 s
After refinement shell refinement iteration 0 : cells:868703  faces:2791583  points:1049115
Cells per refinement level:
    0	9909
    1	2074
    2	2560
    3	8216
    4	33189
    5	115839
    6	696916
Balanced mesh in = 6.39 s
After balancing shell refinement iteration 0 : cells:868703  faces:2791583  points:1049472
Cells per refinement level:
    0	9909
    1	2074
    2	2560
    3	8216
    4	33189
    5	115839
    6	696916

Shell refinement iteration 1
----------------------------

Marked for refinement due to distance to explicit features : 0 cells.
Marked for refinement due to refinement shells             : 10916 cells.
Determined cells to refine in = 0.07 s
Selected for internal refinement : 25323 cells (out of 868703)
Edge intersection testing:
    Number of edges             : 3331871
    Number of edges to retest   : 1227807
    Number of intersected edges : 209942
Refined mesh in = 0.4 s
After refinement shell refinement iteration 1 : cells:1045964  faces:3331871  points:1234625
Cells per refinement level:
    0	9621
    1	3028
    2	11149
    3	18216
    4	91648
    5	129458
    6	782844
Balanced mesh in = 7.24 s
After balancing shell refinement iteration 1 : cells:1045964  faces:3331871  points:1234856
Cells per refinement level:
    0	9621
    1	3028
    2	11149
    3	18216
    4	91648
    5	129458
    6	782844

Shell refinement iteration 2
----------------------------

Marked for refinement due to distance to explicit features : 0 cells.
Marked for refinement due to refinement shells             : 24860 cells.
Determined cells to refine in = 0.09 s
Selected for internal refinement : 27087 cells (out of 1045964)
Edge intersection testing:
    Number of edges             : 3909077
    Number of edges to retest   : 779239
    Number of intersected edges : 210287
Refined mesh in = 0.62 s
After refinement shell refinement iteration 2 : cells:1235573  faces:3909077  points:1432888
Cells per refinement level:
    0	9322
    1	4367
    2	9304
    3	85760
    4	208054
    5	132722
    6	786044
Balanced mesh in = 8.14 s
After balancing shell refinement iteration 2 : cells:1235573  faces:3909077  points:1433144
Cells per refinement level:
    0	9322
    1	4367
    2	9304
    3	85760
    4	208054
    5	132722
    6	786044

Shell refinement iteration 3
----------------------------

Marked for refinement due to distance to explicit features : 0 cells.
Marked for refinement due to refinement shells             : 79264 cells.
Determined cells to refine in = 0.08 s
Selected for internal refinement : 82364 cells (out of 1235573)
Edge intersection testing:
    Number of edges             : 5658161
    Number of edges to retest   : 2090812
    Number of intersected edges : 210465
Refined mesh in = 1.12 s
After refinement shell refinement iteration 3 : cells:1812121  faces:5658161  points:2029212
Cells per refinement level:
    0	9211
    1	4325
    2	11455
    3	52232
    4	814764
    5	132618
    6	787516
Balanced mesh in = 11.76 s
After balancing shell refinement iteration 3 : cells:1812121  faces:5658161  points:2029362
Cells per refinement level:
    0	9211
    1	4325
    2	11455
    3	52232
    4	814764
    5	132618
    6	787516

Shell refinement iteration 4
----------------------------

Marked for refinement due to distance to explicit features : 0 cells.
Marked for refinement due to refinement shells             : 20544 cells.
Determined cells to refine in = 0.11 s
Selected for internal refinement : 22832 cells (out of 1812121)
Edge intersection testing:
    Number of edges             : 6139301
    Number of edges to retest   : 714568
    Number of intersected edges : 210504
Refined mesh in = 0.39 s
After refinement shell refinement iteration 4 : cells:1971945  faces:6139301  points:2190855
Cells per refinement level:
    0	9168
    1	4444
    2	11306
    3	47280
    4	979101
    5	132682
    6	787964
Balanced mesh in = 12.06 s
After balancing shell refinement iteration 4 : cells:1971945  faces:6139301  points:2190967
Cells per refinement level:
    0	9168
    1	4444
    2	11306
    3	47280
    4	979101
    5	132682
    6	787964

Shell refinement iteration 5
----------------------------

Marked for refinement due to distance to explicit features : 0 cells.
Marked for refinement due to refinement shells             : 0 cells.
Determined cells to refine in = 0.12 s
Selected for internal refinement : 602 cells (out of 1971945)
Edge intersection testing:
    Number of edges             : 6152039
    Number of edges to retest   : 36327
    Number of intersected edges : 210504
Refined mesh in = 0.35 s
After refinement shell refinement iteration 5 : cells:1976159  faces:6152039  points:2195281
Cells per refinement level:
    0	9128
    1	4236
    2	15528
    3	47296
    4	979096
    5	132695
    6	788180
Skipping balancing since max unbalance 0.0149909 is less than allowable 0.1

Shell refinement iteration 6
----------------------------

Marked for refinement due to distance to explicit features : 0 cells.
Marked for refinement due to refinement shells             : 0 cells.
Determined cells to refine in = 0.12 s
Selected for internal refinement : 50 cells (out of 1976159)
Edge intersection testing:
    Number of edges             : 6153092
    Number of edges to retest   : 3899
    Number of intersected edges : 210504
Refined mesh in = 0.38 s
After refinement shell refinement iteration 6 : cells:1976509  faces:6153092  points:2195634
Cells per refinement level:
    0	9079
    1	4628
    2	15528
    3	47296
    4	979095
    5	132703
    6	788180
Skipping balancing since max unbalance 0.0160084 is less than allowable 0.1

Shell refinement iteration 7
----------------------------

Marked for refinement due to distance to explicit features : 0 cells.
Marked for refinement due to refinement shells             : 0 cells.
Determined cells to refine in = 0.1 s
Selected for internal refinement : 0 cells (out of 1976509)
Stopping refining since too few cells selected.


Dangling coarse cells refinement iteration 0
--------------------------------------------

Determined cells to refine in = 0.05 s
Selected for refinement : 320 cells (out of 1976509)
Edge intersection testing:
    Number of edges             : 6157871
    Number of edges to retest   : 39188
    Number of intersected edges : 210497
Refined mesh in = 0.35 s
After refinement coarse cell refinement iteration 0 : cells:1978749  faces:6157871  points:2196267
Cells per refinement level:
    0	9079
    1	4628
    2	15528
    3	47296
    4	979049
    5	132797
    6	790372
Skipping balancing since max unbalance 0.0148582 is less than allowable 0.1

Dangling coarse cells refinement iteration 1
--------------------------------------------

Determined cells to refine in = 0.08 s
Selected for refinement : 34 cells (out of 1978749)
Edge intersection testing:
    Number of edges             : 6158375
    Number of edges to retest   : 4340
    Number of intersected edges : 210500
Refined mesh in = 0.37 s
After refinement coarse cell refinement iteration 1 : cells:1978987  faces:6158375  points:2196333
Cells per refinement level:
    0	9079
    1	4628
    2	15528
    3	47296
    4	979046
    5	132790
    6	790620
Skipping balancing since max unbalance 0.0147146 is less than allowable 0.1

Dangling coarse cells refinement iteration 2
--------------------------------------------

Determined cells to refine in = 0.08 s
Selected for refinement : 10 cells (out of 1978987)
Stopping refining since too few cells selected.


Dangling coarse cells refinement iteration 0
--------------------------------------------

Determined cells to refine in = 0.02 s
Selected for refinement : 47 cells (out of 1978987)
Edge intersection testing:
    Number of edges             : 6158939
    Number of edges to retest   : 6088
    Number of intersected edges : 210498
Refined mesh in = 0.33 s
After refinement coarse cell refinement iteration 0 : cells:1979316  faces:6158939  points:2196380
Cells per refinement level:
    0	9079
    1	4628
    2	15528
    3	47296
    4	979038
    5	132815
    6	790932
Skipping balancing since max unbalance 0.0145711 is less than allowable 0.1

Dangling coarse cells refinement iteration 1
--------------------------------------------

Determined cells to refine in = 0.07 s
Selected for refinement : 0 cells (out of 1979316)
Stopping refining since too few cells selected.


Splitting mesh at surface intersections
---------------------------------------

Introducing baffles for 210498 faces that are intersected by the surface.

Edge intersection testing:
    Number of edges             : 6369358
    Number of edges to retest   : 1179279
    Number of intersected edges : 418621
Created baffles in = 0.32 s


After introducing baffles : cells:1979316  faces:6369358  points:2196473
Cells per refinement level:
    0	9079
    1	4628
    2	15528
    3	47296
    4	979038
    5	132815
    6	790932

Introducing baffles to block off problem cells
----------------------------------------------

markFacesOnProblemCells : marked 135175 additional internal faces to be converted into baffles.
Analyzed problem cells in = 0.32 s


Introducing baffles to delete problem cells.

Edge intersection testing:
    Number of edges             : 6504533
    Number of edges to retest   : 542506
    Number of intersected edges : 418746
Created baffles in = 0.3 s


After introducing baffles : cells:1979316  faces:6504533  points:2199763
Cells per refinement level:
    0	9079
    1	4628
    2	15528
    3	47296
    4	979038
    5	132815
    6	790932

Remove unreachable sections of mesh
-----------------------------------

Keeping all cells in region 0 containing point (3.0001 3.0001 0.43)
Selected for keeping : 1761057 cells.
Edge intersection testing:
    Number of edges             : 5553466
    Number of edges to retest   : 0
    Number of intersected edges : 235273
Split mesh in = 1.26 s


After subsetting : cells:1761057  faces:5553466  points:1992409
Cells per refinement level:
    0	9079
    1	4628
    2	15528
    3	47296
    4	979038
    5	120545
    6	584943

Handling cells with snap problems
---------------------------------

Introducing baffles for 235273 faces that are intersected by the surface.

Edge intersection testing:
    Number of edges             : 5553466
    Number of edges to retest   : 704738
    Number of intersected edges : 235273
Created baffles in = 0.32 s


After introducing baffles : cells:1761057  faces:5553466  points:1992409
Cells per refinement level:
    0	9079
    1	4628
    2	15528
    3	47296
    4	979038
    5	120545
    6	584943

Introducing baffles to block off problem cells
----------------------------------------------

markFacesOnProblemCells : marked 184 additional internal faces to be converted into baffles.
Analyzed problem cells in = 0.26 s


Introducing baffles to delete problem cells.

Edge intersection testing:
    Number of edges             : 5553650
    Number of edges to retest   : 867
    Number of intersected edges : 235273
Created baffles in = 0.24 s


After introducing baffles : cells:1761057  faces:5553650  points:1992417
Cells per refinement level:
    0	9079
    1	4628
    2	15528
    3	47296
    4	979038
    5	120545
    6	584943

Remove unreachable sections of mesh
-----------------------------------

Keeping all cells in region 0 containing point (3.0001 3.0001 0.43)
Selected for keeping : 1760968 cells.
Edge intersection testing:
    Number of edges             : 5553120
    Number of edges to retest   : 0
    Number of intersected edges : 235114
Split mesh in = 1.14 s


After subsetting : cells:1760968  faces:5553120  points:1992314
Cells per refinement level:
    0	9079
    1	4628
    2	15528
    3	47296
    4	979038
    5	120545
    6	584854

Merge free-standing baffles
---------------------------

freeStandingBaffles : detected 1413 free-standing baffles out of 36382

freeStandingBaffles : detected 135 planar (within 30 degrees) free-standing baffles out of 1413

Detected free-standing baffles : 135
Edge intersection testing:
    Number of edges             : 5552985
    Number of edges to retest   : 135
    Number of intersected edges : 234979

Introducing baffles to block off problem cells
----------------------------------------------

markFacesOnProblemCells : marked 76 additional internal faces to be converted into baffles.
Analyzed problem cells in = 0.58 s


Introducing baffles to delete problem cells.

Edge intersection testing:
    Number of edges             : 5553061
    Number of edges to retest   : 381
    Number of intersected edges : 234979
Created baffles in = 0.21 s


After introducing baffles : cells:1760968  faces:5553061  points:1992314
Cells per refinement level:
    0	9079
    1	4628
    2	15528
    3	47296
    4	979038
    5	120545
    6	584854
Merged free-standing baffles in = 0.08 s


dupNonManifoldPoints : Found : 37241 non-manifold points (out of 2145225)
Edge intersection testing:
    Number of edges             : 5553061
    Number of edges to retest   : 0
    Number of intersected edges : 234979
Detected unsplittable baffles : 127
Edge intersection testing:
    Number of edges             : 5552934
    Number of edges to retest   : 127
    Number of intersected edges : 234852
Keeping all cells in region 0 containing point (3.0001 3.0001 0.43)
Selected for keeping : 1760934 cells.
Edge intersection testing:
    Number of edges             : 5552730
    Number of edges to retest   : 0
    Number of intersected edges : 234796
Merged free-standing baffles in = 1.57 s.

Merge refined boundary faces
----------------------------

Merging 780 sets of faces.

Edge intersection testing:
    Number of edges             : 5551538
    Number of edges to retest   : 7361
    Number of intersected edges : 233618

Undo iteration 0
----------------
Checking faces in error :
    non-orthogonality > 65  degrees                        : 0
    faces with face pyramid volume < 1e-13                 : 0
    faces with face-decomposition tet quality < 1e-15      : 0
    faces with concavity > 80  degrees                     : 0
    faces with skewness > 4   (internal) or 20  (boundary) : 0
    faces with interpolation weights (0..1)  < 0.02        : 0
    faces with volume ratio of neighbour cells < 0.01      : 0
    faces with face twist < 0.02                           : 0
    faces on cells with determinant < 0.001                : 0

Merging all points on surface that
- are used by only two boundary faces and
- make an angle with a cosine of more than 0.707107.

Removing 996 straight edge points ...

Edge intersection testing:
    Number of edges             : 5551538
    Number of edges to retest   : 8445
    Number of intersected edges : 233618

Undo iteration 0
----------------
Checking faces in error :
    non-orthogonality > 65  degrees                        : 0
    faces with face pyramid volume < 1e-13                 : 0
    faces with face-decomposition tet quality < 1e-15      : 0
    faces with concavity > 80  degrees                     : 0
    faces with skewness > 4   (internal) or 20  (boundary) : 0
    faces with interpolation weights (0..1)  < 0.02        : 0
    faces with volume ratio of neighbour cells < 0.01      : 0
    faces with face twist < 0.02                           : 0
    faces on cells with determinant < 0.001                : 0

Doing final balancing
---------------------

Found 0 zoned faces to keep together.
Found 0 separated coupled faces to keep together.
Refined mesh : cells:1760934  faces:5551538  points:2027465
Cells per refinement level:
    0	9079
    1	4628
    2	15528
    3	47296
    4	979038
    5	120545
    6	584820
Writing mesh to time constant
Wrote mesh in = 11.32 s.
Mesh refined in = 84.4 s.

Morphing phase
--------------


Snapping to features in 10 iterations ...
Constructing mesh displacer ...
Using mesh parameters 
{
    maxNonOrtho     65;
    maxBoundarySkewness 20;
    maxInternalSkewness 4;
    maxConcave      80;
    minVol          1e-13;
    minTetQuality   1e-15;
    minArea         -1;
    minTwist        0.02;
    minDeterminant  0.001;
    minFaceWeight   0.02;
    minVolRatio     0.01;
    minTriangleTwist -1;
    nSmoothScale    4;
    errorReduction  0.75;
}


Checking initial mesh ...
Checking faces in error :
    non-orthogonality > 65  degrees                        : 0
    faces with face pyramid volume < 1e-13                 : 0
    faces with face-decomposition tet quality < 1e-15      : 0
    faces with concavity > 80  degrees                     : 0
    faces with skewness > 4   (internal) or 20  (boundary) : 0
    faces with interpolation weights (0..1)  < 0.02        : 0
    faces with volume ratio of neighbour cells < 0.01      : 0
    faces with face twist < 0.02                           : 0
    faces on cells with determinant < 0.001                : 0
Detected 0 illegal faces (concave, zero area or negative cell pyramid volume)
Checked initial mesh in = 0.23 s


Smoothing patch points ...
Smoothing iteration 0
Found 32302 non-manifold point(s).

Scaling iteration 0
Moving mesh using displacement scaling : min:1  max:1
Checking faces in error :
    non-orthogonality > 65  degrees                        : 0
    faces with face pyramid volume < 1e-13                 : 0
    faces with face-decomposition tet quality < 1e-15      : 1
    faces with concavity > 80  degrees                     : 0
    faces with skewness > 4   (internal) or 20  (boundary) : 0
    faces with interpolation weights (0..1)  < 0.02        : 0
    faces with volume ratio of neighbour cells < 0.01      : 0
    faces with face twist < 0.02                           : 2
    faces on cells with determinant < 0.001                : 0

Scaling iteration 1
Moving mesh using displacement scaling : min:0.75  max:1
Checking faces in error :
    non-orthogonality > 65  degrees                        : 0
    faces with face pyramid volume < 1e-13                 : 0
    faces with face-decomposition tet quality < 1e-15      : 0
    faces with concavity > 80  degrees                     : 0
    faces with skewness > 4   (internal) or 20  (boundary) : 0
    faces with interpolation weights (0..1)  < 0.02        : 0
    faces with volume ratio of neighbour cells < 0.01      : 0
    faces with face twist < 0.02                           : 0
    faces on cells with determinant < 0.001                : 0
Successfully moved mesh

Smoothing iteration 1
Found 0 non-manifold point(s).

Scaling iteration 0
Moving mesh using displacement scaling : min:1  max:1
Checking faces in error :
    non-orthogonality > 65  degrees                        : 0
    faces with face pyramid volume < 1e-13                 : 0
    faces with face-decomposition tet quality < 1e-15      : 1
    faces with concavity > 80  degrees                     : 0
    faces with skewness > 4   (internal) or 20  (boundary) : 0
    faces with interpolation weights (0..1)  < 0.02        : 0
    faces with volume ratio of neighbour cells < 0.01      : 0
    faces with face twist < 0.02                           : 0
    faces on cells with determinant < 0.001                : 0

Scaling iteration 1
Moving mesh using displacement scaling : min:0.75  max:1
Checking faces in error :
    non-orthogonality > 65  degrees                        : 0
    faces with face pyramid volume < 1e-13                 : 0
    faces with face-decomposition tet quality < 1e-15      : 1
    faces with concavity > 80  degrees                     : 0
    faces with skewness > 4   (internal) or 20  (boundary) : 0
    faces with interpolation weights (0..1)  < 0.02        : 0
    faces with volume ratio of neighbour cells < 0.01      : 0
    faces with face twist < 0.02                           : 0
    faces on cells with determinant < 0.001                : 0

Scaling iteration 2
Moving mesh using displacement scaling : min:0.5625  max:1
Checking faces in error :
    non-orthogonality > 65  degrees                        : 0
    faces with face pyramid volume < 1e-13                 : 0
    faces with face-decomposition tet quality < 1e-15      : 1
    faces with concavity > 80  degrees                     : 0
    faces with skewness > 4   (internal) or 20  (boundary) : 0
    faces with interpolation weights (0..1)  < 0.02        : 0
    faces with volume ratio of neighbour cells < 0.01      : 0
    faces with face twist < 0.02                           : 0
    faces on cells with determinant < 0.001                : 0

Scaling iteration 3
Moving mesh using displacement scaling : min:0.421875  max:1
Checking faces in error :
    non-orthogonality > 65  degrees                        : 0
    faces with face pyramid volume < 1e-13                 : 0
    faces with face-decomposition tet quality < 1e-15      : 1
    faces with concavity > 80  degrees                     : 0
    faces with skewness > 4   (internal) or 20  (boundary) : 0
    faces with interpolation weights (0..1)  < 0.02        : 0
    faces with volume ratio of neighbour cells < 0.01      : 0
    faces with face twist < 0.02                           : 0
    faces on cells with determinant < 0.001                : 0

Scaling iteration 4
Moving mesh using displacement scaling : min:0.316406  max:1
Checking faces in error :
    non-orthogonality > 65  degrees                        : 0
    faces with face pyramid volume < 1e-13                 : 0
    faces with face-decomposition tet quality < 1e-15      : 0
    faces with concavity > 80  degrees                     : 0
    faces with skewness > 4   (internal) or 20  (boundary) : 0
    faces with interpolation weights (0..1)  < 0.02        : 0
    faces with volume ratio of neighbour cells < 0.01      : 0
    faces with face twist < 0.02                           : 0
    faces on cells with determinant < 0.001                : 0
Successfully moved mesh

Smoothing iteration 2
Found 0 non-manifold point(s).

Scaling iteration 0
Moving mesh using displacement scaling : min:1  max:1
Checking faces in error :
    non-orthogonality > 65  degrees                        : 0
    faces with face pyramid volume < 1e-13                 : 0
    faces with face-decomposition tet quality < 1e-15      : 5
    faces with concavity > 80  degrees                     : 0
    faces with skewness > 4   (internal) or 20  (boundary) : 0
    faces with interpolation weights (0..1)  < 0.02        : 0
    faces with volume ratio of neighbour cells < 0.01      : 0
    faces with face twist < 0.02                           : 0
    faces on cells with determinant < 0.001                : 0

Scaling iteration 1
Moving mesh using displacement scaling : min:0.75  max:1
Checking faces in error :
    non-orthogonality > 65  degrees                        : 0
    faces with face pyramid volume < 1e-13                 : 0
    faces with face-decomposition tet quality < 1e-15      : 3
    faces with concavity > 80  degrees                     : 0
    faces with skewness > 4   (internal) or 20  (boundary) : 0
    faces with interpolation weights (0..1)  < 0.02        : 0
    faces with volume ratio of neighbour cells < 0.01      : 0
    faces with face twist < 0.02                           : 0
    faces on cells with determinant < 0.001                : 0

Scaling iteration 2
Moving mesh using displacement scaling : min:0.5625  max:1
Checking faces in error :
    non-orthogonality > 65  degrees                        : 0
    faces with face pyramid volume < 1e-13                 : 0
    faces with face-decomposition tet quality < 1e-15      : 3
    faces with concavity > 80  degrees                     : 0
    faces with skewness > 4   (internal) or 20  (boundary) : 0
    faces with interpolation weights (0..1)  < 0.02        : 0
    faces with volume ratio of neighbour cells < 0.01      : 0
    faces with face twist < 0.02                           : 0
    faces on cells with determinant < 0.001                : 0

Scaling iteration 3
Moving mesh using displacement scaling : min:0.421875  max:1
Checking faces in error :
    non-orthogonality > 65  degrees                        : 0
    faces with face pyramid volume < 1e-13                 : 0
    faces with face-decomposition tet quality < 1e-15      : 1
    faces with concavity > 80  degrees                     : 0
    faces with skewness > 4   (internal) or 20  (boundary) : 0
    faces with interpolation weights (0..1)  < 0.02        : 0
    faces with volume ratio of neighbour cells < 0.01      : 0
    faces with face twist < 0.02                           : 0
    faces on cells with determinant < 0.001                : 0

Scaling iteration 4
Moving mesh using displacement scaling : min:0.316406  max:1
Checking faces in error :
    non-orthogonality > 65  degrees                        : 0
    faces with face pyramid volume < 1e-13                 : 0
    faces with face-decomposition tet quality < 1e-15      : 1
    faces with concavity > 80  degrees                     : 0
    faces with skewness > 4   (internal) or 20  (boundary) : 0
    faces with interpolation weights (0..1)  < 0.02        : 0
    faces with volume ratio of neighbour cells < 0.01      : 0
    faces with face twist < 0.02                           : 0
    faces on cells with determinant < 0.001                : 0

Scaling iteration 5
Displacement scaling for error reduction set to 0.
Moving mesh using displacement scaling : min:0.237305  max:1
Checking faces in error :
    non-orthogonality > 65  degrees                        : 0
    faces with face pyramid volume < 1e-13                 : 0
    faces with face-decomposition tet quality < 1e-15      : 1
    faces with concavity > 80  degrees                     : 0
    faces with skewness > 4   (internal) or 20  (boundary) : 0
    faces with interpolation weights (0..1)  < 0.02        : 0
    faces with volume ratio of neighbour cells < 0.01      : 0
    faces with face twist < 0.02                           : 0
    faces on cells with determinant < 0.001                : 0

Scaling iteration 6
Moving mesh using displacement scaling : min:0  max:1
Checking faces in error :
    non-orthogonality > 65  degrees                        : 0
    faces with face pyramid volume < 1e-13                 : 0
    faces with face-decomposition tet quality < 1e-15      : 0
    faces with concavity > 80  degrees                     : 0
    faces with skewness > 4   (internal) or 20  (boundary) : 0
    faces with interpolation weights (0..1)  < 0.02        : 0
    faces with volume ratio of neighbour cells < 0.01      : 0
    faces with face twist < 0.02                           : 0
    faces on cells with determinant < 0.001                : 0
Successfully moved mesh

Patch points smoothed in = 2.45 s



Morph iteration 0
-----------------
Calculating patchDisplacement as distance to nearest surface point ...
Wanted displacement : average:0.00157174 min:4.9335e-10 max:0.0113036
Calculated surface displacement in = 0.05 s


Detecting near surfaces ...
Overriding nearest with intersection of close gaps at 296 out of 249379 points.
Overriding displacement on features :
   implicit features    : false
   explicit features    : true
   multi-patch features : false

Detected 4159 baffle edges out of 488200 edges.
Initially selected 54243 points out of 249379 for reverse attraction.
Selected 126281 points out of 249379 for reverse attraction.
Stringing feature edges : changed 4514 points
Stringing feature edges : changed 282 points
Stringing feature edges : changed 90 points
Stringing feature edges : changed 39 points
Stringing feature edges : changed 18 points
Stringing feature edges : changed 14 points
Stringing feature edges : changed 7 points
Stringing feature edges : changed 3 points
Stringing feature edges : changed 4 points
Stringing feature edges : changed 2 points
Stringing feature edges : changed 1 points
Stringing feature edges : changed 0 points
Attraction:
     linear   : max:(0.000314872 -0.00567183 0.00977254) avg:(4.03708e-06 7.84673e-06 8.29054e-06)
     feature  : max:(0.0364875 0.000900886 -9.98e-06) avg:(-1.46475e-08 4.92474e-06 -9.96827e-06)
Feature analysis : total master points:240437 attraction to :
    feature point   : 1642
    feature edge    : 28062
    nearest surface : 0
    rest            : 210733

--> FOAM Warning : Displacement (-1.33755e-05 -1.84634e-05 1.917e-05) at mesh point 7855 coord (0.125089 0.053127 0.0999964) points through the surrounding patch faces
Smoothing displacement ...
Iteration 0
Iteration 10
Iteration 20
Displacement smoothed in = 0.74 s


Moving mesh ...

Iteration 0
Moving mesh using displacement scaling : min:1  max:1
Checking faces in error :
    non-orthogonality > 65  degrees                        : 0
    faces with face pyramid volume < 1e-13                 : 0
    faces with face-decomposition tet quality < 1e-15      : 1
    faces with concavity > 80  degrees                     : 0
    faces with skewness > 4   (internal) or 20  (boundary) : 0
    faces with interpolation weights (0..1)  < 0.02        : 0
    faces with volume ratio of neighbour cells < 0.01      : 0
    faces with face twist < 0.02                           : 0
    faces on cells with determinant < 0.001                : 0

Iteration 1
Moving mesh using displacement scaling : min:0.75  max:1
Checking faces in error :
    non-orthogonality > 65  degrees                        : 0
    faces with face pyramid volume < 1e-13                 : 0
    faces with face-decomposition tet quality < 1e-15      : 0
    faces with concavity > 80  degrees                     : 0
    faces with skewness > 4   (internal) or 20  (boundary) : 0
    faces with interpolation weights (0..1)  < 0.02        : 0
    faces with volume ratio of neighbour cells < 0.01      : 0
    faces with face twist < 0.02                           : 0
    faces on cells with determinant < 0.001                : 0
Successfully moved mesh
Moved mesh in = 0.32 s



Morph iteration 1
-----------------
Calculating patchDisplacement as distance to nearest surface point ...
Wanted displacement : average:0.00146303 min:4.44015e-10 max:0.0109059
Calculated surface displacement in = 0.04 s


Detecting near surfaces ...
Overriding nearest with intersection of close gaps at 329 out of 249379 points.
Overriding displacement on features :
   implicit features    : false
   explicit features    : true
   multi-patch features : false

Detected 4143 baffle edges out of 488200 edges.
Initially selected 54364 points out of 249379 for reverse attraction.
Selected 126476 points out of 249379 for reverse attraction.
Stringing feature edges : changed 4445 points
Stringing feature edges : changed 293 points
Stringing feature edges : changed 83 points
Stringing feature edges : changed 37 points
Stringing feature edges : changed 20 points
Stringing feature edges : changed 17 points
Stringing feature edges : changed 12 points
Stringing feature edges : changed 1 points
Stringing feature edges : changed 2 points
Stringing feature edges : changed 1 points
Stringing feature edges : changed 1 points
Stringing feature edges : changed 0 points
Attraction:
     linear   : max:(0.000303794 -0.00547228 0.00942871) avg:(3.1141e-06 7.17295e-06 8.00818e-06)
     feature  : max:(0.0358979 0.000883951 -9.98e-06) avg:(-5.84223e-07 3.58667e-06 -9.84785e-06)
[...]
    non-orthogonality > 65  degrees                        : 0
    faces with face pyramid volume < 1e-13                 : 0
    faces with face-decomposition tet quality < 1e-15      : 0
    faces with concavity > 80  degrees                     : 0
    faces with skewness > 4   (internal) or 20  (boundary) : 0
    faces with interpolation weights (0..1)  < 0.02        : 0
    faces with volume ratio of neighbour cells < 0.01      : 0
    faces with face twist < 0.02                           : 0
    faces on cells with determinant < 0.001                : 0
displacementMedialAxis : Successfully moved mesh
displacementMedialAxis : Finished moving mesh ...
truncateDisplacement : Unextruded 0 faces due to non-consecutive vertices being extruded.
truncateDisplacement : Unextruded 0 faces due to stringed edges with inconsistent extrusion.

Setting up information for layer truncation ...

Checking mesh with layer ...
Checking faces in error :
    non-orthogonality > 65  degrees                        : 1
    faces with face pyramid volume < 1e-13                 : 0
    faces with face-decomposition tet quality < 1e-15      : 1
    faces with concavity > 80  degrees                     : 0
    faces with skewness > 4   (internal) or 20  (boundary) : 0
    faces with interpolation weights (0..1)  < 0.02        : 0
    faces with volume ratio of neighbour cells < 0.01      : 0
    faces with face twist < 0.02                           : 0
    faces on cells with determinant < 0.001                : 0
Detected 2 illegal faces (concave, zero area or negative cell pyramid volume)
Extruding 137017 out of 183012 faces (74.8678%). Removed extrusion at 2 faces.
Added 137019 out of 183012 cells (74.8689%).


Layer addition iteration 23
--------------------------

Determining displacement for added points according to pointNormal ...
Detected 0 points with point normal pointing through faces.
Reset displacement at 0 points to average of surrounding points.

displacementMedialAxis : Smoothing using Medial Axis ...
displacementMedialAxis : Reducing layer thickness at 510 nodes where thickness to medial axis distance is large 
displacementMedialAxis : Removing isolated regions ...
displacementMedialAxis : Number of isolated points extrusion stopped : 1
displacementMedialAxis : Smoothing field ...
    Iteration 0   residual 4.63263e-05
displacementMedialAxis : Moving mesh ...
displacementMedialAxis : Iteration 0
Moving mesh using displacement scaling : min:1  max:1
Checking faces in error :
    non-orthogonality > 65  degrees                        : 0
    faces with face pyramid volume < 1e-13                 : 0
    faces with face-decomposition tet quality < 1e-15      : 22
    faces with concavity > 80  degrees                     : 0
    faces with skewness > 4   (internal) or 20  (boundary) : 0
    faces with interpolation weights (0..1)  < 0.02        : 0
    faces with volume ratio of neighbour cells < 0.01      : 0
    faces with face twist < 0.02                           : 1
    faces on cells with determinant < 0.001                : 0
displacementMedialAxis : Iteration 1
Moving mesh using displacement scaling : min:0.75  max:1
Checking faces in error :
    non-orthogonality > 65  degrees                        : 0
    faces with face pyramid volume < 1e-13                 : 0
    faces with face-decomposition tet quality < 1e-15      : 7
    faces with concavity > 80  degrees                     : 0
    faces with skewness > 4   (internal) or 20  (boundary) : 0
    faces with interpolation weights (0..1)  < 0.02        : 0
    faces with volume ratio of neighbour cells < 0.01      : 0
    faces with face twist < 0.02                           : 0
    faces on cells with determinant < 0.001                : 0
displacementMedialAxis : Iteration 2
Moving mesh using displacement scaling : min:0.5625  max:1
Checking faces in error :
    non-orthogonality > 65  degrees                        : 0
    faces with face pyramid volume < 1e-13                 : 0
    faces with face-decomposition tet quality < 1e-15      : 3
    faces with concavity > 80  degrees                     : 0
    faces with skewness > 4   (internal) or 20  (boundary) : 0
    faces with interpolation weights (0..1)  < 0.02        : 0
    faces with volume ratio of neighbour cells < 0.01      : 0
    faces with face twist < 0.02                           : 0
    faces on cells with determinant < 0.001                : 0
displacementMedialAxis : Iteration 3
displacementMedialAxis : Displacement scaling for error reduction set to 0.
Moving mesh using displacement scaling : min:0.421875  max:1
Checking faces in error :
    non-orthogonality > 65  degrees                        : 0
    faces with face pyramid volume < 1e-13                 : 0
    faces with face-decomposition tet quality < 1e-15      : 2
    faces with concavity > 80  degrees                     : 0
    faces with skewness > 4   (internal) or 20  (boundary) : 0
    faces with interpolation weights (0..1)  < 0.02        : 0
    faces with volume ratio of neighbour cells < 0.01      : 0
    faces with face twist < 0.02                           : 0
    faces on cells with determinant < 0.001                : 0
displacementMedialAxis : Iteration 4
Moving mesh using displacement scaling : min:0  max:1
Checking faces in error :
    non-orthogonality > 65  degrees                        : 0
    faces with face pyramid volume < 1e-13                 : 0
    faces with face-decomposition tet quality < 1e-15      : 0
    faces with concavity > 80  degrees                     : 0
    faces with skewness > 4   (internal) or 20  (boundary) : 0
    faces with interpolation weights (0..1)  < 0.02        : 0
    faces with volume ratio of neighbour cells < 0.01      : 0
    faces with face twist < 0.02                           : 0
    faces on cells with determinant < 0.001                : 0
displacementMedialAxis : Successfully moved mesh
displacementMedialAxis : Finished moving mesh ...
truncateDisplacement : Unextruded 0 faces due to non-consecutive vertices being extruded.
truncateDisplacement : Unextruded 0 faces due to stringed edges with inconsistent extrusion.

Setting up information for layer truncation ...

Checking mesh with layer ...
Checking faces in error :
    non-orthogonality > 65  degrees                        : 0
    faces with face pyramid volume < 1e-13                 : 0
    faces with face-decomposition tet quality < 1e-15      : 1
    faces with concavity > 80  degrees                     : 0
    faces with skewness > 4   (internal) or 20  (boundary) : 0
    faces with interpolation weights (0..1)  < 0.02        : 0
    faces with volume ratio of neighbour cells < 0.01      : 0
    faces with face twist < 0.02                           : 0
    faces on cells with determinant < 0.001                : 0
Detected 1 illegal faces (concave, zero area or negative cell pyramid volume)
Extruding 137014 out of 183012 faces (74.8661%). Removed extrusion at 1 faces.
Added 137015 out of 183012 cells (74.8667%).


Layer addition iteration 24
--------------------------

Determining displacement for added points according to pointNormal ...
Detected 0 points with point normal pointing through faces.
Reset displacement at 0 points to average of surrounding points.

displacementMedialAxis : Smoothing using Medial Axis ...
displacementMedialAxis : Reducing layer thickness at 510 nodes where thickness to medial axis distance is large 
displacementMedialAxis : Removing isolated regions ...
displacementMedialAxis : Number of isolated points extrusion stopped : 0
displacementMedialAxis : Smoothing field ...
    Iteration 0   residual 4.63273e-05
displacementMedialAxis : Moving mesh ...
displacementMedialAxis : Iteration 0
Moving mesh using displacement scaling : min:1  max:1
Checking faces in error :
    non-orthogonality > 65  degrees                        : 0
    faces with face pyramid volume < 1e-13                 : 0
    faces with face-decomposition tet quality < 1e-15      : 22
    faces with concavity > 80  degrees                     : 0
    faces with skewness > 4   (internal) or 20  (boundary) : 0
    faces with interpolation weights (0..1)  < 0.02        : 0
    faces with volume ratio of neighbour cells < 0.01      : 0
    faces with face twist < 0.02                           : 1
    faces on cells with determinant < 0.001                : 0
displacementMedialAxis : Iteration 1
Moving mesh using displacement scaling : min:0.75  max:1
Checking faces in error :
    non-orthogonality > 65  degrees                        : 0
    faces with face pyramid volume < 1e-13                 : 0
    faces with face-decomposition tet quality < 1e-15      : 7
    faces with concavity > 80  degrees                     : 0
    faces with skewness > 4   (internal) or 20  (boundary) : 0
    faces with interpolation weights (0..1)  < 0.02        : 0
    faces with volume ratio of neighbour cells < 0.01      : 0
    faces with face twist < 0.02                           : 0
    faces on cells with determinant < 0.001                : 0
displacementMedialAxis : Iteration 2
Moving mesh using displacement scaling : min:0.5625  max:1
Checking faces in error :
    non-orthogonality > 65  degrees                        : 0
    faces with face pyramid volume < 1e-13                 : 0
    faces with face-decomposition tet quality < 1e-15      : 3
    faces with concavity > 80  degrees                     : 0
    faces with skewness > 4   (internal) or 20  (boundary) : 0
    faces with interpolation weights (0..1)  < 0.02        : 0
    faces with volume ratio of neighbour cells < 0.01      : 0
    faces with face twist < 0.02                           : 0
    faces on cells with determinant < 0.001                : 0
displacementMedialAxis : Iteration 3
displacementMedialAxis : Displacement scaling for error reduction set to 0.
Moving mesh using displacement scaling : min:0.421875  max:1
Checking faces in error :
    non-orthogonality > 65  degrees                        : 0
    faces with face pyramid volume < 1e-13                 : 0
    faces with face-decomposition tet quality < 1e-15      : 2
    faces with concavity > 80  degrees                     : 0
    faces with skewness > 4   (internal) or 20  (boundary) : 0
    faces with interpolation weights (0..1)  < 0.02        : 0
    faces with volume ratio of neighbour cells < 0.01      : 0
    faces with face twist < 0.02                           : 0
    faces on cells with determinant < 0.001                : 0
displacementMedialAxis : Iteration 4
Moving mesh using displacement scaling : min:0  max:1
Checking faces in error :
    non-orthogonality > 65  degrees                        : 0
    faces with face pyramid volume < 1e-13                 : 0
    faces with face-decomposition tet quality < 1e-15      : 0
    faces with concavity > 80  degrees                     : 0
    faces with skewness > 4   (internal) or 20  (boundary) : 0
    faces with interpolation weights (0..1)  < 0.02        : 0
    faces with volume ratio of neighbour cells < 0.01      : 0
    faces with face twist < 0.02                           : 0
    faces on cells with determinant < 0.001                : 0
displacementMedialAxis : Successfully moved mesh
displacementMedialAxis : Finished moving mesh ...
truncateDisplacement : Unextruded 0 faces due to non-consecutive vertices being extruded.
truncateDisplacement : Unextruded 0 faces due to stringed edges with inconsistent extrusion.

Setting up information for layer truncation ...

Checking mesh with layer ...
Checking faces in error :
    non-orthogonality > 65  degrees                        : 0
    faces with face pyramid volume < 1e-13                 : 0
    faces with face-decomposition tet quality < 1e-15      : 0
    faces with concavity > 80  degrees                     : 0
    faces with skewness > 4   (internal) or 20  (boundary) : 0
    faces with interpolation weights (0..1)  < 0.02        : 0
    faces with volume ratio of neighbour cells < 0.01      : 0
    faces with face twist < 0.02                           : 0
    faces on cells with determinant < 0.001                : 0
Detected 0 illegal faces (concave, zero area or negative cell pyramid volume)
Extruding 137014 out of 183012 faces (74.8661%). Removed extrusion at 0 faces.
Added 137014 out of 183012 cells (74.8661%).
Edge intersection testing:
    Number of edges             : 5892256
    Number of edges to retest   : 0
    Number of intersected edges : 286254

Doing final balancing
---------------------

Writing 137014 added cells to cellSet addedCells
Writing 0 faces inside added layer to faceSet layerFaces

Writing fields with layer information:
    nSurfaceLayers    : actual number of layers
    thickness         : overall layer thickness
    thicknessFraction : overall layer thickness (fraction of desired thickness)


patch                                            faces    layers   overall thickness
                                                                   [m]       [%]
-----                                            -----    ------   ---       ---
lowerWall                                        15842    0.994    0.0145    96.4    
motorBike_frt-fairing:001%1                      21762    0.633    0.00107   45.5    
motorBike_windshield:002%2                       180      0.944    0.00198   84.6    
motorBike_rr-wh-rim:005%5                        557      0.876    0.00107   45.9    
motorBike_rr-wh-rim:010%10                       1381     0.18     0.000278  11.9    
motorBike_fr-wh-rim:011%11                       1773     0.545    0.000587  25.1    
motorBike_fr-wh-brake-disk:012%12                256      1        0.00103   44.2    
motorBike_frame:016-shadow%13                    428      0.46     0.000383  16.4    
motorBike_rear-susp:014%14                       3621     0.772    0.00105   44.8    
motorBike_rear-susp:014-shadow%15                2146     0.753    0.00108   46      
motorBike_frame:016%16                           255      0.51     0.000404  17.2    
motorBike_rr-wh-rim:005-shadow%17                316      0.864    0.00107   45.8    
motorBike_rr-wh-chain-hub:022%22                 465      0.486    0.000372  16.3    
motorBike_rearseat%24                            1363     0.881    0.00175   68.3    
motorBike_frt-fairing%25                         2210     0.868    0.00144   60.8    
motorBike_windshield%26                          1471     0.365    0.000608  25.9    
motorBike_headlights%27                          588      0.976    0.00213   90.6    
motorBike_driversseat%28                         1600     0.786    0.00122   51.9    
motorBike_rear-body%29                           7421     0.88     0.00161   66.2    
motorBike_fuel-tank%30                           3260     0.92     0.00192   78.9    
motorBike_exhaust%31                             8432     0.716    0.00135   53.9    
motorBike_rr-wh-rim%32                           4346     0.875    0.00145   57.9    
motorBike_fr-mud-guard%33                        3091     0.502    0.000606  25.9    
motorBike_fr-wh-rim%34                           2205     0.915    0.00157   67      
motorBike_fr-wh-brake-disk%35                    1732     0.758    0.00074   31.6    
motorBike_fr-brake-caliper%36                    571      0.327    0.00023   9.87    
motorBike_fr-wh-tyre%37                          5049     0.735    0.00135   57.7    
motorBike_hbars%38                               2030     0.218    0.000231  9.88    
motorBike_fr-forks%39                            4352     0.721    0.0013    55.6    
motorBike_chain%40                               1787     0.121    8.46e-05  3.61    
motorBike_rr-wh-tyre%41                          4575     0.799    0.00173   59.3    
motorBike_square-dial%42                         20       1        0.00192   81.9    
motorBike_round-dial%43                          45       0.978    0.00102   43.4    
motorBike_dial-holder%44                         343      0.735    0.000697  30      
motorBike_rear-susp%45                           7101     0.781    0.000953  40.7    
motorBike_rear-brake-lights%46                   202      0.465    0.000399  17.4    
motorBike_rear-light-bracket%47                  633      0.834    0.00117   49.8    
motorBike_frame%48                               7658     0.797    0.00135   57.4    
motorBike_rear-mud-guard%49                      2526     0.439    0.000579  24.7    
motorBike_rear-susp-spring-damp%50               466      0.612    0.00058   24.8    
motorBike_fairing-inner-plate%51                 1564     0.792    0.00126   50.5    
motorBike_clutch-housing%52                      3777     0.968    0.00177   75      
motorBike_radiator%53                            426      0.155    7.53e-05  3.21    
motorBike_water-pipe%54                          325      0        0         0       
motorBike_water-pump%55                          264      0.402    0.000339  14.7    
motorBike_engine%56                              8709     0.904    0.00154   64.6    
motorBike_rear-shock-link%57                     103      0        0         0       
motorBike_rear-brake-fluid-pot-bracket%58        159      0.585    0.000622  27      
motorBike_rear-brake-fluid-pot%59                203      0.532    0.000321  14      
motorBike_footpeg%60                             345      0.342    0.00017   7.29    
motorBike_rr-wh-chain-hub%61                     445      0.634    0.000541  23.4    
motorBike_rear-brake-caliper%62                  570      0.382    0.000317  13.7    
motorBike_rider-helmet%65                        1802     0.952    0.00231   79.1    
motorBike_rider-visor%66                         544      1        0.00231   96.9    
motorBike_rider-boots%67                         3756     0.961    0.00197   83.7    
motorBike_rider-gloves%68                        1211     0.462    0.000767  32.7    
motorBike_rider-body%69                          14314    0.933    0.00219   81.1    
motorBike_frame:0%70                             141      0.667    0.00104   44.3    
motorBike_frt-fairing:001-shadow%74              13692    0.604    0.00103   44      
motorBike_windshield-shadow%75                   1031     0.306    0.000559  23.9    
motorBike_fr-mud-guard-shadow%81                 2052     0.48     0.000591  25.3    
motorBike_fr-wh-brake-disk-shadow%83             931      0.762    0.000764  32.7    
motorBike_rear-mud-guard-shadow%84               1659     0.424    0.000583  24.9    
motorBike_rear-susp-spring-damp-shadow%85        255      0.651    0.000613  26.2    
motorBike_radiator-shadow%86                     254      0.177    9.91e-05  4.23    
motorBike_rear-shock-link-shadow%87              57       0        0         0       
motorBike_rear-brake-fluid-pot-bracket-shadow%88 96       0.562    0.000431  19.3    
motorBike_rr-wh-chain-hub-shadow%89              268      0.616    0.000537  23.6    

Layer mesh : cells:1897948  faces:5892256  points:2118604
Cells per refinement level:
    0	9547
    1	4920
    2	16076
    3	48272
    4	991488
    5	127184
    6	700461
Writing mesh to time constant
Wrote mesh in = 58.4 s.
Layers added in = 58.4 s.
Checking final mesh ...
Checking faces in error :
    non-orthogonality > 65  degrees                        : 0
    faces with face pyramid volume < 1e-13                 : 0
    faces with face-decomposition tet quality < 1e-15      : 0
    faces with concavity > 80  degrees                     : 0
    faces with skewness > 4   (internal) or 20  (boundary) : 0
    faces with interpolation weights (0..1)  < 0.02        : 0
    faces with volume ratio of neighbour cells < 0.01      : 0
    faces with face twist < 0.02                           : 0
    faces on cells with determinant < 0.001                : 0
Finished meshing without any errors
Finished meshing in = 173.03 s.
End

Finalising parallel run
