Cleaning /rds/user/hpcbras1/hpc-work/csd3/cclake-roce-gcc9-ompi3-ucx/openfoam/Openfoam_Mbike_csd3_cclake_roce_gcc9_ompi3_ucx_56_56 case
Running surfaceFeatureExtract on /rds/user/hpcbras1/hpc-work/csd3/cclake-roce-gcc9-ompi3-ucx/openfoam/Openfoam_Mbike_csd3_cclake_roce_gcc9_ompi3_ucx_56_56
Running blockMesh on /rds/user/hpcbras1/hpc-work/csd3/cclake-roce-gcc9-ompi3-ucx/openfoam/Openfoam_Mbike_csd3_cclake_roce_gcc9_ompi3_ucx_56_56
Running decomposePar on /rds/user/hpcbras1/hpc-work/csd3/cclake-roce-gcc9-ompi3-ucx/openfoam/Openfoam_Mbike_csd3_cclake_roce_gcc9_ompi3_ucx_56_56
Running snappyHexMesh in parallel on /rds/user/hpcbras1/hpc-work/csd3/cclake-roce-gcc9-ompi3-ucx/openfoam/Openfoam_Mbike_csd3_cclake_roce_gcc9_ompi3_ucx_56_56 using 56 processes
/*---------------------------------------------------------------------------*\
  =========                 |
  \\      /  F ield         | OpenFOAM: The Open Source CFD Toolbox
   \\    /   O peration     | Website:  https://openfoam.org
    \\  /    A nd           | Version:  7
     \\/     M anipulation  |
\*---------------------------------------------------------------------------*/
Build  : 7
Exec   : /home/hpcbras1/spack/opt/spack/linux-scientific7-skylake_avx512/gcc-9.1.0/openfoam-org-7-dahapwszurcwmfsxldhpukzh3tv4odmy/platforms/linux64GccDPInt32-spack/bin/simpleFoam -parallel
Date   : Oct 14 2020
Time   : 17:42:09
Host   : "cpu-p-281"
PID    : 92232
I/O    : uncollated
Case   : /rds/user/hpcbras1/hpc-work/csd3/cclake-roce-gcc9-ompi3-ucx/openfoam/Openfoam_Mbike_csd3_cclake_roce_gcc9_ompi3_ucx_56_56
nProcs : 56
Slaves : 
55
(
"cpu-p-281.92233"
"cpu-p-281.92234"
"cpu-p-281.92235"
"cpu-p-281.92236"
"cpu-p-281.92237"
"cpu-p-281.92238"
"cpu-p-281.92239"
"cpu-p-281.92240"
"cpu-p-281.92241"
"cpu-p-281.92242"
"cpu-p-281.92243"
"cpu-p-281.92244"
"cpu-p-281.92245"
"cpu-p-281.92246"
"cpu-p-281.92247"
"cpu-p-281.92248"
"cpu-p-281.92249"
"cpu-p-281.92250"
"cpu-p-281.92251"
"cpu-p-281.92252"
"cpu-p-281.92253"
"cpu-p-281.92254"
"cpu-p-281.92255"
"cpu-p-281.92256"
"cpu-p-281.92257"
"cpu-p-281.92258"
"cpu-p-281.92259"
"cpu-p-281.92260"
"cpu-p-281.92261"
"cpu-p-281.92262"
"cpu-p-281.92263"
"cpu-p-281.92264"
"cpu-p-281.92265"
"cpu-p-281.92266"
"cpu-p-281.92267"
"cpu-p-281.92268"
"cpu-p-281.92269"
"cpu-p-281.92270"
"cpu-p-281.92271"
"cpu-p-281.92272"
"cpu-p-281.92273"
"cpu-p-281.92274"
"cpu-p-281.92275"
"cpu-p-281.92276"
"cpu-p-281.92277"
"cpu-p-281.92278"
"cpu-p-281.92279"
"cpu-p-281.92280"
"cpu-p-281.92281"
"cpu-p-281.92282"
"cpu-p-281.92283"
"cpu-p-281.92284"
"cpu-p-281.92285"
"cpu-p-281.92286"
"cpu-p-281.92287"
)

Pstream initialized with:
    floatTransfer      : 0
    nProcsSimpleSum    : 0
    commsType          : nonBlocking
    polling iterations : 0
sigFpe : Enabling floating point exception trapping (FOAM_SIGFPE).
fileModificationChecking : Monitoring run-time modified files using timeStampMaster (fileModificationSkew 10)
allowSystemOperations : Allowing user-supplied system call operations

// * * * * * * * * * * * * * * * * * * * * * * * * * * * * * * * * * * * * * //
Create time

Create mesh for time = 0


SIMPLE: No convergence criteria found

Reading field p

Reading field U

Reading/calculating face flux field phi

Selecting incompressible transport model Newtonian
Selecting turbulence model type RAS
Selecting RAS turbulence model kOmegaSST
Selecting patchDistMethod meshWave
RAS
{
    RASModel        kOmegaSST;
    turbulence      on;
    printCoeffs     on;
    alphaK1         0.85;
    alphaK2         1;
    alphaOmega1     0.5;
    alphaOmega2     0.856;
    gamma1          0.555556;
    gamma2          0.44;
    beta1           0.075;
    beta2           0.0828;
    betaStar        0.09;
    a1              0.31;
    b1              1;
    c1              10;
    F3              false;
}

No MRF models present

No finite volume options present

Starting time loop

Reading surface description:
    yNormal

forces forceCoeffs1:
    Not including porosity effects
forceCoeffs forceCoeffs1:
    Not including porosity effects
Time = 1

smoothSolver:  Solving for Ux, Initial residual = 1, Final residual = 0.0985097, No Iterations 13
smoothSolver:  Solving for Uy, Initial residual = 1, Final residual = 0.090864, No Iterations 12
smoothSolver:  Solving for Uz, Initial residual = 1, Final residual = 0.0839824, No Iterations 13
GAMG:  Solving for p, Initial residual = 1, Final residual = 0.00456623, No Iterations 7
time step continuity errors : sum local = 0.000322845, global = 8.42375e-07, cumulative = 8.42375e-07
smoothSolver:  Solving for omega, Initial residual = 0.0287829, Final residual = 0.00121367, No Iterations 3
bounding omega, min: -228379 max: 8.5255e+06 average: 505.323
smoothSolver:  Solving for k, Initial residual = 1, Final residual = 0.0542324, No Iterations 4
ExecutionTime = 0.8 s  ClockTime = 1 s

forceCoeffs forceCoeffs1 write:
    Cm    = 12.2698
    Cd    = 26.5342
    Cl    = -1.76368
    Cl(f) = 11.388
    Cl(r) = -13.1517

Time = 2

smoothSolver:  Solving for Ux, Initial residual = 0.107035, Final residual = 0.0097667, No Iterations 11
smoothSolver:  Solving for Uy, Initial residual = 0.51753, Final residual = 0.042039, No Iterations 11
smoothSolver:  Solving for Uz, Initial residual = 0.393239, Final residual = 0.0382914, No Iterations 10
GAMG:  Solving for p, Initial residual = 0.235707, Final residual = 0.00100837, No Iterations 5
time step continuity errors : sum local = 0.00439658, global = -8.35427e-06, cumulative = -7.51189e-06
smoothSolver:  Solving for omega, Initial residual = 0.023502, Final residual = 0.00131365, No Iterations 3
smoothSolver:  Solving for k, Initial residual = 0.167314, Final residual = 0.00850331, No Iterations 4
ExecutionTime = 1.12 s  ClockTime = 1 s

forceCoeffs forceCoeffs1 write:
    Cm    = 4.69694
    Cd    = 10.7476
    Cl    = -0.393355
    Cl(f) = 4.50026
    Cl(r) = -4.89362

Time = 3

smoothSolver:  Solving for Ux, Initial residual = 0.132517, Final residual = 0.0102964, No Iterations 5
smoothSolver:  Solving for Uy, Initial residual = 0.572916, Final residual = 0.0561376, No Iterations 5
smoothSolver:  Solving for Uz, Initial residual = 0.629794, Final residual = 0.0459726, No Iterations 5
GAMG:  Solving for p, Initial residual = 0.14109, Final residual = 0.000808621, No Iterations 5
time step continuity errors : sum local = 0.00290639, global = 6.90892e-06, cumulative = -6.02974e-07
smoothSolver:  Solving for omega, Initial residual = 0.0101031, Final residual = 0.000575481, No Iterations 3
smoothSolver:  Solving for k, Initial residual = 0.0259027, Final residual = 0.00238571, No Iterations 3
ExecutionTime = 1.44 s  ClockTime = 1 s

forceCoeffs forceCoeffs1 write:
    Cm    = 3.04899
    Cd    = 6.94129
    Cl    = -1.17796
    Cl(f) = 2.46
    Cl(r) = -3.63797

Time = 4

smoothSolver:  Solving for Ux, Initial residual = 0.057259, Final residual = 0.0044, No Iterations 6
smoothSolver:  Solving for Uy, Initial residual = 0.460659, Final residual = 0.0355344, No Iterations 6
smoothSolver:  Solving for Uz, Initial residual = 0.452177, Final residual = 0.042173, No Iterations 5
GAMG:  Solving for p, Initial residual = 0.0802579, Final residual = 0.00036253, No Iterations 5
time step continuity errors : sum local = 0.00149932, global = 3.75618e-06, cumulative = 3.15321e-06
smoothSolver:  Solving for omega, Initial residual = 0.00531766, Final residual = 0.000260879, No Iterations 3
smoothSolver:  Solving for k, Initial residual = 0.0138289, Final residual = 0.00124041, No Iterations 3
ExecutionTime = 1.76 s  ClockTime = 2 s

forceCoeffs forceCoeffs1 write:
    Cm    = 1.32312
    Cd    = 3.2762
    Cl    = -0.687427
    Cl(f) = 0.97941
    Cl(r) = -1.66684

Time = 5

smoothSolver:  Solving for Ux, Initial residual = 0.0253006, Final residual = 0.00208604, No Iterations 7
smoothSolver:  Solving for Uy, Initial residual = 0.366311, Final residual = 0.0349152, No Iterations 6
smoothSolver:  Solving for Uz, Initial residual = 0.314812, Final residual = 0.0288927, No Iterations 6
GAMG:  Solving for p, Initial residual = 0.0600363, Final residual = 0.000501843, No Iterations 4
time step continuity errors : sum local = 0.00238016, global = 1.43841e-05, cumulative = 1.75373e-05
smoothSolver:  Solving for omega, Initial residual = 0.00347833, Final residual = 0.000177131, No Iterations 3
smoothSolver:  Solving for k, Initial residual = 0.00920952, Final residual = 0.000812745, No Iterations 3
ExecutionTime = 2.05 s  ClockTime = 2 s

forceCoeffs forceCoeffs1 write:
    Cm    = 0.681872
    Cd    = 1.75282
    Cl    = -0.323602
    Cl(f) = 0.520071
    Cl(r) = -0.843673

Time = 6

smoothSolver:  Solving for Ux, Initial residual = 0.0178764, Final residual = 0.00151197, No Iterations 7
smoothSolver:  Solving for Uy, Initial residual = 0.305995, Final residual = 0.0242266, No Iterations 7
smoothSolver:  Solving for Uz, Initial residual = 0.25692, Final residual = 0.0241282, No Iterations 6
GAMG:  Solving for p, Initial residual = 0.0514369, Final residual = 0.000379118, No Iterations 4
time step continuity errors : sum local = 0.00176783, global = 1.8907e-05, cumulative = 3.64443e-05
smoothSolver:  Solving for omega, Initial residual = 0.00249536, Final residual = 0.000128563, No Iterations 3
smoothSolver:  Solving for k, Initial residual = 0.00717074, Final residual = 0.000607596, No Iterations 3
ExecutionTime = 2.36 s  ClockTime = 2 s

forceCoeffs forceCoeffs1 write:
    Cm    = 0.426803
    Cd    = 1.10961
    Cl    = -0.144249
    Cl(f) = 0.354679
    Cl(r) = -0.498928

Time = 7

smoothSolver:  Solving for Ux, Initial residual = 0.014205, Final residual = 0.00123643, No Iterations 7
smoothSolver:  Solving for Uy, Initial residual = 0.265687, Final residual = 0.0223959, No Iterations 7
smoothSolver:  Solving for Uz, Initial residual = 0.227969, Final residual = 0.0175826, No Iterations 7
GAMG:  Solving for p, Initial residual = 0.0469341, Final residual = 0.000327327, No Iterations 4
time step continuity errors : sum local = 0.00148033, global = 2.27732e-05, cumulative = 5.92175e-05
smoothSolver:  Solving for omega, Initial residual = 0.00203844, Final residual = 0.000104208, No Iterations 3
smoothSolver:  Solving for k, Initial residual = 0.00641013, Final residual = 0.000524409, No Iterations 3
ExecutionTime = 2.66 s  ClockTime = 3 s

forceCoeffs forceCoeffs1 write:
    Cm    = 0.312123
    Cd    = 0.76515
    Cl    = -0.0437452
    Cl(f) = 0.29025
    Cl(r) = -0.333996

Time = 8

smoothSolver:  Solving for Ux, Initial residual = 0.0123265, Final residual = 0.00106664, No Iterations 7
smoothSolver:  Solving for Uy, Initial residual = 0.235402, Final residual = 0.0204007, No Iterations 7
smoothSolver:  Solving for Uz, Initial residual = 0.216662, Final residual = 0.0173585, No Iterations 7
GAMG:  Solving for p, Initial residual = 0.0438259, Final residual = 0.000292994, No Iterations 4
time step continuity errors : sum local = 0.0012797, global = 2.19562e-05, cumulative = 8.11736e-05
smoothSolver:  Solving for omega, Initial residual = 0.00169513, Final residual = 8.71957e-05, No Iterations 3
smoothSolver:  Solving for k, Initial residual = 0.00575347, Final residual = 0.000461726, No Iterations 3
ExecutionTime = 2.96 s  ClockTime = 3 s

forceCoeffs forceCoeffs1 write:
    Cm    = 0.278395
    Cd    = 0.635001
    Cl    = -0.0126592
    Cl(f) = 0.272065
    Cl(r) = -0.284725

Time = 9

smoothSolver:  Solving for Ux, Initial residual = 0.00974602, Final residual = 0.000954078, No Iterations 7
smoothSolver:  Solving for Uy, Initial residual = 0.205873, Final residual = 0.0189739, No Iterations 7
smoothSolver:  Solving for Uz, Initial residual = 0.207919, Final residual = 0.0181557, No Iterations 7
GAMG:  Solving for p, Initial residual = 0.0415799, Final residual = 0.000272711, No Iterations 4
time step continuity errors : sum local = 0.00115562, global = 8.8684e-06, cumulative = 9.0042e-05
smoothSolver:  Solving for omega, Initial residual = 0.00146766, Final residual = 7.67426e-05, No Iterations 3
smoothSolver:  Solving for k, Initial residual = 0.00550853, Final residual = 0.000429603, No Iterations 3
ExecutionTime = 3.26 s  ClockTime = 3 s

forceCoeffs forceCoeffs1 write:
    Cm    = 0.268683
    Cd    = 0.579199
    Cl    = -0.0104085
    Cl(f) = 0.263479
    Cl(r) = -0.273888

Time = 10

smoothSolver:  Solving for Ux, Initial residual = 0.00855132, Final residual = 0.000673536, No Iterations 8
smoothSolver:  Solving for Uy, Initial residual = 0.184218, Final residual = 0.0174825, No Iterations 7
smoothSolver:  Solving for Uz, Initial residual = 0.203478, Final residual = 0.0183155, No Iterations 7
GAMG:  Solving for p, Initial residual = 0.0399881, Final residual = 0.000269539, No Iterations 4
time step continuity errors : sum local = 0.00110258, global = 1.54755e-06, cumulative = 9.15896e-05
smoothSolver:  Solving for omega, Initial residual = 0.00128501, Final residual = 6.89459e-05, No Iterations 3
smoothSolver:  Solving for k, Initial residual = 0.00514134, Final residual = 0.000398139, No Iterations 3
ExecutionTime = 3.57 s  ClockTime = 4 s

forceCoeffs forceCoeffs1 write:
    Cm    = 0.25208
    Cd    = 0.541034
    Cl    = -0.0238959
    Cl(f) = 0.240132
    Cl(r) = -0.264028

Time = 11

smoothSolver:  Solving for Ux, Initial residual = 0.0076708, Final residual = 0.000629769, No Iterations 8
smoothSolver:  Solving for Uy, Initial residual = 0.165814, Final residual = 0.0163957, No Iterations 7
smoothSolver:  Solving for Uz, Initial residual = 0.177807, Final residual = 0.0167261, No Iterations 7
GAMG:  Solving for p, Initial residual = 0.0389803, Final residual = 0.00026376, No Iterations 4
time step continuity errors : sum local = 0.00103671, global = -1.90108e-06, cumulative = 8.96885e-05
smoothSolver:  Solving for omega, Initial residual = 0.00116941, Final residual = 6.33686e-05, No Iterations 3
smoothSolver:  Solving for k, Initial residual = 0.00501762, Final residual = 0.000389496, No Iterations 3
ExecutionTime = 3.87 s  ClockTime = 4 s

forceCoeffs forceCoeffs1 write:
    Cm    = 0.239982
    Cd    = 0.518748
    Cl    = -0.0259362
    Cl(f) = 0.227013
    Cl(r) = -0.25295

Time = 12

smoothSolver:  Solving for Ux, Initial residual = 0.00707554, Final residual = 0.000599663, No Iterations 8
smoothSolver:  Solving for Uy, Initial residual = 0.152899, Final residual = 0.0120651, No Iterations 8
smoothSolver:  Solving for Uz, Initial residual = 0.158549, Final residual = 0.015486, No Iterations 7
GAMG:  Solving for p, Initial residual = 0.0381202, Final residual = 0.000253642, No Iterations 4
time step continuity errors : sum local = 0.000957182, global = -5.12043e-06, cumulative = 8.45681e-05
smoothSolver:  Solving for omega, Initial residual = 0.00107555, Final residual = 6.01568e-05, No Iterations 3
smoothSolver:  Solving for k, Initial residual = 0.00496747, Final residual = 0.000389322, No Iterations 3
ExecutionTime = 4.18 s  ClockTime = 4 s

forceCoeffs forceCoeffs1 write:
    Cm    = 0.225714
    Cd    = 0.496082
    Cl    = -0.0346276
    Cl(f) = 0.2084
    Cl(r) = -0.243028

Time = 13

smoothSolver:  Solving for Ux, Initial residual = 0.00661905, Final residual = 0.000575507, No Iterations 8
smoothSolver:  Solving for Uy, Initial residual = 0.14384, Final residual = 0.0115155, No Iterations 8
smoothSolver:  Solving for Uz, Initial residual = 0.147852, Final residual = 0.0115806, No Iterations 8
GAMG:  Solving for p, Initial residual = 0.0374314, Final residual = 0.000251507, No Iterations 4
time step continuity errors : sum local = 0.000909215, global = -5.87464e-06, cumulative = 7.86934e-05
smoothSolver:  Solving for omega, Initial residual = 0.000980499, Final residual = 5.74205e-05, No Iterations 3
smoothSolver:  Solving for k, Initial residual = 0.00497183, Final residual = 0.000400219, No Iterations 3
ExecutionTime = 4.48 s  ClockTime = 5 s

forceCoeffs forceCoeffs1 write:
    Cm    = 0.213993
    Cd    = 0.478329
    Cl    = -0.0347251
    Cl(f) = 0.19663
    Cl(r) = -0.231355

Time = 14

smoothSolver:  Solving for Ux, Initial residual = 0.00617575, Final residual = 0.000564175, No Iterations 8
smoothSolver:  Solving for Uy, Initial residual = 0.133382, Final residual = 0.0110961, No Iterations 8
smoothSolver:  Solving for Uz, Initial residual = 0.142038, Final residual = 0.0115214, No Iterations 8
GAMG:  Solving for p, Initial residual = 0.0370772, Final residual = 0.000247252, No Iterations 4
time step continuity errors : sum local = 0.000854605, global = -5.53944e-06, cumulative = 7.3154e-05
smoothSolver:  Solving for omega, Initial residual = 0.000910034, Final residual = 5.51322e-05, No Iterations 3
smoothSolver:  Solving for k, Initial residual = 0.00502972, Final residual = 0.000418268, No Iterations 3
ExecutionTime = 4.79 s  ClockTime = 5 s

forceCoeffs forceCoeffs1 write:
    Cm    = 0.202719
    Cd    = 0.466077
    Cl    = -0.0263754
    Cl(f) = 0.189532
    Cl(r) = -0.215907

Time = 15

smoothSolver:  Solving for Ux, Initial residual = 0.00593116, Final residual = 0.000556948, No Iterations 8
smoothSolver:  Solving for Uy, Initial residual = 0.123796, Final residual = 0.0107057, No Iterations 8
smoothSolver:  Solving for Uz, Initial residual = 0.138382, Final residual = 0.0116274, No Iterations 8
GAMG:  Solving for p, Initial residual = 0.0366953, Final residual = 0.000244507, No Iterations 4
time step continuity errors : sum local = 0.000804628, global = -4.64936e-06, cumulative = 6.85046e-05
smoothSolver:  Solving for omega, Initial residual = 0.000838789, Final residual = 5.29551e-05, No Iterations 3
smoothSolver:  Solving for k, Initial residual = 0.0051194, Final residual = 0.000433063, No Iterations 3
ExecutionTime = 5.09 s  ClockTime = 5 s

forceCoeffs forceCoeffs1 write:
    Cm    = 0.19263
    Cd    = 0.454803
    Cl    = -0.0163484
    Cl(f) = 0.184455
    Cl(r) = -0.200804

Time = 16

smoothSolver:  Solving for Ux, Initial residual = 0.00569883, Final residual = 0.000553769, No Iterations 8
smoothSolver:  Solving for Uy, Initial residual = 0.115126, Final residual = 0.0103504, No Iterations 8
smoothSolver:  Solving for Uz, Initial residual = 0.134493, Final residual = 0.0117917, No Iterations 8
GAMG:  Solving for p, Initial residual = 0.0363557, Final residual = 0.000248132, No Iterations 4
time step continuity errors : sum local = 0.000778595, global = -3.29854e-06, cumulative = 6.52061e-05
smoothSolver:  Solving for omega, Initial residual = 0.000792558, Final residual = 5.13498e-05, No Iterations 3
smoothSolver:  Solving for k, Initial residual = 0.00517336, Final residual = 0.000444484, No Iterations 3
ExecutionTime = 5.41 s  ClockTime = 6 s

forceCoeffs forceCoeffs1 write:
    Cm    = 0.183262
    Cd    = 0.443849
    Cl    = -0.00465283
    Cl(f) = 0.180936
    Cl(r) = -0.185589

Time = 17

smoothSolver:  Solving for Ux, Initial residual = 0.00552276, Final residual = 0.000549555, No Iterations 8
smoothSolver:  Solving for Uy, Initial residual = 0.107376, Final residual = 0.00998676, No Iterations 8
smoothSolver:  Solving for Uz, Initial residual = 0.129906, Final residual = 0.0117451, No Iterations 8
GAMG:  Solving for p, Initial residual = 0.0360447, Final residual = 0.000250978, No Iterations 4
time step continuity errors : sum local = 0.000750863, global = -1.10031e-06, cumulative = 6.41058e-05
smoothSolver:  Solving for omega, Initial residual = 0.000773127, Final residual = 5.01721e-05, No Iterations 3
smoothSolver:  Solving for k, Initial residual = 0.00530458, Final residual = 0.000462581, No Iterations 3
ExecutionTime = 5.71 s  ClockTime = 6 s

forceCoeffs forceCoeffs1 write:
    Cm    = 0.177644
    Cd    = 0.436901
    Cl    = -0.000985869
    Cl(f) = 0.177151
    Cl(r) = -0.178137

Time = 18

smoothSolver:  Solving for Ux, Initial residual = 0.00533236, Final residual = 0.000426865, No Iterations 9
smoothSolver:  Solving for Uy, Initial residual = 0.101267, Final residual = 0.00976044, No Iterations 8
smoothSolver:  Solving for Uz, Initial residual = 0.123981, Final residual = 0.0116023, No Iterations 8
GAMG:  Solving for p, Initial residual = 0.0356796, Final residual = 0.000251475, No Iterations 4
time step continuity errors : sum local = 0.000719228, global = 1.71319e-06, cumulative = 6.5819e-05
smoothSolver:  Solving for omega, Initial residual = 0.00074754, Final residual = 4.85837e-05, No Iterations 3
smoothSolver:  Solving for k, Initial residual = 0.00528842, Final residual = 0.000478184, No Iterations 3
ExecutionTime = 6.02 s  ClockTime = 6 s

forceCoeffs forceCoeffs1 write:
    Cm    = 0.171481
    Cd    = 0.422529
    Cl    = 0.0036563
    Cl(f) = 0.173309
    Cl(r) = -0.169652

Time = 19

smoothSolver:  Solving for Ux, Initial residual = 0.00517666, Final residual = 0.000423896, No Iterations 9
smoothSolver:  Solving for Uy, Initial residual = 0.0981687, Final residual = 0.00974893, No Iterations 8
smoothSolver:  Solving for Uz, Initial residual = 0.117146, Final residual = 0.0113354, No Iterations 8
GAMG:  Solving for p, Initial residual = 0.0352168, Final residual = 0.000252631, No Iterations 4
time step continuity errors : sum local = 0.000692065, global = 2.53125e-06, cumulative = 6.83502e-05
smoothSolver:  Solving for omega, Initial residual = 0.000711736, Final residual = 4.78349e-05, No Iterations 3
smoothSolver:  Solving for k, Initial residual = 0.00555903, Final residual = 0.00051083, No Iterations 3
ExecutionTime = 6.33 s  ClockTime = 6 s

forceCoeffs forceCoeffs1 write:
    Cm    = 0.17358
    Cd    = 0.423858
    Cl    = -0.00266151
    Cl(f) = 0.17225
    Cl(r) = -0.174911

Time = 20

smoothSolver:  Solving for Ux, Initial residual = 0.00498176, Final residual = 0.000421499, No Iterations 9
smoothSolver:  Solving for Uy, Initial residual = 0.0977331, Final residual = 0.00782525, No Iterations 9
smoothSolver:  Solving for Uz, Initial residual = 0.111336, Final residual = 0.00878045, No Iterations 9
GAMG:  Solving for p, Initial residual = 0.0346726, Final residual = 0.000259781, No Iterations 4
time step continuity errors : sum local = 0.000683683, global = 3.19369e-06, cumulative = 7.15439e-05
smoothSolver:  Solving for omega, Initial residual = 0.000666324, Final residual = 4.65695e-05, No Iterations 3
smoothSolver:  Solving for k, Initial residual = 0.00539361, Final residual = 0.000516512, No Iterations 3
ExecutionTime = 6.65 s  ClockTime = 7 s

forceCoeffs forceCoeffs1 write:
    Cm    = 0.173323
    Cd    = 0.423016
    Cl    = -0.000501192
    Cl(f) = 0.173073
    Cl(r) = -0.173574

Time = 21

smoothSolver:  Solving for Ux, Initial residual = 0.00474364, Final residual = 0.000414746, No Iterations 9
smoothSolver:  Solving for Uy, Initial residual = 0.0970575, Final residual = 0.00800133, No Iterations 9
smoothSolver:  Solving for Uz, Initial residual = 0.105426, Final residual = 0.00861042, No Iterations 9
GAMG:  Solving for p, Initial residual = 0.033842, Final residual = 0.000255055, No Iterations 4
time step continuity errors : sum local = 0.000649442, global = 4.30726e-06, cumulative = 7.58512e-05
smoothSolver:  Solving for omega, Initial residual = 0.000615316, Final residual = 4.43599e-05, No Iterations 3
smoothSolver:  Solving for k, Initial residual = 0.00531096, Final residual = 0.000521971, No Iterations 3
ExecutionTime = 6.96 s  ClockTime = 7 s

forceCoeffs forceCoeffs1 write:
    Cm    = 0.171122
    Cd    = 0.420772
    Cl    = -0.00163327
    Cl(f) = 0.170305
    Cl(r) = -0.171938

Time = 22

smoothSolver:  Solving for Ux, Initial residual = 0.00456076, Final residual = 0.000408897, No Iterations 9
smoothSolver:  Solving for Uy, Initial residual = 0.0974845, Final residual = 0.00822856, No Iterations 9
smoothSolver:  Solving for Uz, Initial residual = 0.10115, Final residual = 0.0085013, No Iterations 9
GAMG:  Solving for p, Initial residual = 0.0328827, Final residual = 0.000244493, No Iterations 4
time step continuity errors : sum local = 0.000604941, global = 5.24543e-06, cumulative = 8.10966e-05
smoothSolver:  Solving for omega, Initial residual = 0.0005774, Final residual = 4.28604e-05, No Iterations 3
smoothSolver:  Solving for k, Initial residual = 0.00522535, Final residual = 0.000259783, No Iterations 4
ExecutionTime = 7.32 s  ClockTime = 7 s

forceCoeffs forceCoeffs1 write:
    Cm    = 0.168185
    Cd    = 0.416298
    Cl    = 0.00386174
    Cl(f) = 0.170116
    Cl(r) = -0.166254

Time = 23

smoothSolver:  Solving for Ux, Initial residual = 0.00436801, Final residual = 0.000403072, No Iterations 9
smoothSolver:  Solving for Uy, Initial residual = 0.0984622, Final residual = 0.00851682, No Iterations 9
smoothSolver:  Solving for Uz, Initial residual = 0.0964746, Final residual = 0.00835611, No Iterations 9
GAMG:  Solving for p, Initial residual = 0.0319337, Final residual = 0.000243193, No Iterations 4
time step continuity errors : sum local = 0.000585587, global = 5.86361e-06, cumulative = 8.69602e-05
smoothSolver:  Solving for omega, Initial residual = 0.000550753, Final residual = 4.18731e-05, No Iterations 3
smoothSolver:  Solving for k, Initial residual = 0.00517263, Final residual = 0.000266802, No Iterations 4
ExecutionTime = 7.64 s  ClockTime = 8 s

forceCoeffs forceCoeffs1 write:
    Cm    = 0.165936
    Cd    = 0.41319
    Cl    = 0.00642126
    Cl(f) = 0.169147
    Cl(r) = -0.162726

Time = 24

smoothSolver:  Solving for Ux, Initial residual = 0.00423281, Final residual = 0.000398524, No Iterations 9
smoothSolver:  Solving for Uy, Initial residual = 0.0984852, Final residual = 0.00866317, No Iterations 9
smoothSolver:  Solving for Uz, Initial residual = 0.0919861, Final residual = 0.00815048, No Iterations 9
GAMG:  Solving for p, Initial residual = 0.0311331, Final residual = 0.000237013, No Iterations 4
time step continuity errors : sum local = 0.000554791, global = 4.71872e-06, cumulative = 9.16789e-05
smoothSolver:  Solving for omega, Initial residual = 0.000523954, Final residual = 4.09531e-05, No Iterations 3
smoothSolver:  Solving for k, Initial residual = 0.00516359, Final residual = 0.000271575, No Iterations 4
ExecutionTime = 7.95 s  ClockTime = 8 s

forceCoeffs forceCoeffs1 write:
    Cm    = 0.165831
    Cd    = 0.412876
    Cl    = 0.0131753
    Cl(f) = 0.172418
    Cl(r) = -0.159243

Time = 25

smoothSolver:  Solving for Ux, Initial residual = 0.00410669, Final residual = 0.000393328, No Iterations 9
smoothSolver:  Solving for Uy, Initial residual = 0.0963327, Final residual = 0.00858504, No Iterations 9
smoothSolver:  Solving for Uz, Initial residual = 0.0869141, Final residual = 0.00783785, No Iterations 9
GAMG:  Solving for p, Initial residual = 0.0304042, Final residual = 0.000234336, No Iterations 4
time step continuity errors : sum local = 0.00053227, global = 2.60909e-06, cumulative = 9.4288e-05
smoothSolver:  Solving for omega, Initial residual = 0.000504739, Final residual = 3.98305e-05, No Iterations 3
smoothSolver:  Solving for k, Initial residual = 0.00514614, Final residual = 0.000273128, No Iterations 4
ExecutionTime = 8.26 s  ClockTime = 8 s

forceCoeffs forceCoeffs1 write:
    Cm    = 0.166915
    Cd    = 0.413662
    Cl    = 0.0193289
    Cl(f) = 0.17658
    Cl(r) = -0.157251

Time = 26

smoothSolver:  Solving for Ux, Initial residual = 0.00398316, Final residual = 0.000388688, No Iterations 9
smoothSolver:  Solving for Uy, Initial residual = 0.092241, Final residual = 0.00835943, No Iterations 9
smoothSolver:  Solving for Uz, Initial residual = 0.0818319, Final residual = 0.00750761, No Iterations 9
GAMG:  Solving for p, Initial residual = 0.0296668, Final residual = 0.00023014, No Iterations 4
time step continuity errors : sum local = 0.000506715, global = -9.39513e-07, cumulative = 9.33485e-05
smoothSolver:  Solving for omega, Initial residual = 0.000479602, Final residual = 3.85837e-05, No Iterations 3
smoothSolver:  Solving for k, Initial residual = 0.00510582, Final residual = 0.000273573, No Iterations 4
ExecutionTime = 8.57 s  ClockTime = 9 s

forceCoeffs forceCoeffs1 write:
    Cm    = 0.169652
    Cd    = 0.417855
    Cl    = 0.026125
    Cl(f) = 0.182714
    Cl(r) = -0.156589

Time = 27

smoothSolver:  Solving for Ux, Initial residual = 0.00387198, Final residual = 0.000384319, No Iterations 9
smoothSolver:  Solving for Uy, Initial residual = 0.0883604, Final residual = 0.00816213, No Iterations 9
smoothSolver:  Solving for Uz, Initial residual = 0.077299, Final residual = 0.0072329, No Iterations 9
GAMG:  Solving for p, Initial residual = 0.0290478, Final residual = 0.00022198, No Iterations 4
time step continuity errors : sum local = 0.000473791, global = -5.70156e-06, cumulative = 8.76469e-05
smoothSolver:  Solving for omega, Initial residual = 0.000451389, Final residual = 3.73487e-05, No Iterations 3
smoothSolver:  Solving for k, Initial residual = 0.00507381, Final residual = 0.000273445, No Iterations 4
ExecutionTime = 8.88 s  ClockTime = 9 s

forceCoeffs forceCoeffs1 write:
    Cm    = 0.170751
    Cd    = 0.419476
    Cl    = 0.0328189
    Cl(f) = 0.18716
    Cl(r) = -0.154342

Time = 28

smoothSolver:  Solving for Ux, Initial residual = 0.00375405, Final residual = 0.000297581, No Iterations 10
smoothSolver:  Solving for Uy, Initial residual = 0.0849996, Final residual = 0.00801536, No Iterations 9
smoothSolver:  Solving for Uz, Initial residual = 0.0735252, Final residual = 0.00701446, No Iterations 9
GAMG:  Solving for p, Initial residual = 0.0284027, Final residual = 0.000214621, No Iterations 4
time step continuity errors : sum local = 0.00044461, global = -9.85336e-06, cumulative = 7.77936e-05
smoothSolver:  Solving for omega, Initial residual = 0.000434186, Final residual = 3.60974e-05, No Iterations 3
smoothSolver:  Solving for k, Initial residual = 0.00503314, Final residual = 0.000273812, No Iterations 4
ExecutionTime = 9.2 s  ClockTime = 9 s

forceCoeffs forceCoeffs1 write:
    Cm    = 0.171205
    Cd    = 0.420615
    Cl    = 0.0402783
    Cl(f) = 0.191344
    Cl(r) = -0.151066

Time = 29

smoothSolver:  Solving for Ux, Initial residual = 0.00360776, Final residual = 0.000287536, No Iterations 10
smoothSolver:  Solving for Uy, Initial residual = 0.0820054, Final residual = 0.00786103, No Iterations 9
smoothSolver:  Solving for Uz, Initial residual = 0.0698821, Final residual = 0.00678068, No Iterations 9
GAMG:  Solving for p, Initial residual = 0.0277957, Final residual = 0.000210378, No Iterations 4
time step continuity errors : sum local = 0.000423071, global = -1.19016e-05, cumulative = 6.58919e-05
smoothSolver:  Solving for omega, Initial residual = 0.000414378, Final residual = 3.4899e-05, No Iterations 3
smoothSolver:  Solving for k, Initial residual = 0.0049656, Final residual = 0.000274879, No Iterations 4
ExecutionTime = 9.51 s  ClockTime = 10 s

forceCoeffs forceCoeffs1 write:
    Cm    = 0.170457
    Cd    = 0.418955
    Cl    = 0.0475555
    Cl(f) = 0.194235
    Cl(r) = -0.146679

Time = 30

smoothSolver:  Solving for Ux, Initial residual = 0.00346407, Final residual = 0.000277938, No Iterations 10
smoothSolver:  Solving for Uy, Initial residual = 0.0791778, Final residual = 0.00768061, No Iterations 9
smoothSolver:  Solving for Uz, Initial residual = 0.0666319, Final residual = 0.00653433, No Iterations 9
GAMG:  Solving for p, Initial residual = 0.0272575, Final residual = 0.000206854, No Iterations 4
time step continuity errors : sum local = 0.0004048, global = -1.30954e-05, cumulative = 5.27966e-05
smoothSolver:  Solving for omega, Initial residual = 0.000399889, Final residual = 3.37564e-05, No Iterations 3
smoothSolver:  Solving for k, Initial residual = 0.00490412, Final residual = 0.00027427, No Iterations 4
ExecutionTime = 9.84 s  ClockTime = 10 s

forceCoeffs forceCoeffs1 write:
    Cm    = 0.169887
    Cd    = 0.417147
    Cl    = 0.0535497
    Cl(f) = 0.196662
    Cl(r) = -0.143112

Time = 31

smoothSolver:  Solving for Ux, Initial residual = 0.00333425, Final residual = 0.000269528, No Iterations 10
smoothSolver:  Solving for Uy, Initial residual = 0.0766007, Final residual = 0.00752482, No Iterations 9
smoothSolver:  Solving for Uz, Initial residual = 0.0638936, Final residual = 0.00629818, No Iterations 9
GAMG:  Solving for p, Initial residual = 0.026698, Final residual = 0.000204553, No Iterations 4
time step continuity errors : sum local = 0.000389606, global = -1.33272e-05, cumulative = 3.94694e-05
smoothSolver:  Solving for omega, Initial residual = 0.000385045, Final residual = 3.28257e-05, No Iterations 3
smoothSolver:  Solving for k, Initial residual = 0.00483696, Final residual = 0.000271475, No Iterations 4
ExecutionTime = 10.15 s  ClockTime = 10 s

forceCoeffs forceCoeffs1 write:
    Cm    = 0.168408
    Cd    = 0.413218
    Cl    = 0.0591646
    Cl(f) = 0.19799
    Cl(r) = -0.138826

Time = 32

smoothSolver:  Solving for Ux, Initial residual = 0.00322407, Final residual = 0.000261652, No Iterations 10
smoothSolver:  Solving for Uy, Initial residual = 0.0746059, Final residual = 0.00741019, No Iterations 9
smoothSolver:  Solving for Uz, Initial residual = 0.0615323, Final residual = 0.00608793, No Iterations 9
GAMG:  Solving for p, Initial residual = 0.0263106, Final residual = 0.000202968, No Iterations 4
time step continuity errors : sum local = 0.000376842, global = -1.32807e-05, cumulative = 2.61887e-05
smoothSolver:  Solving for omega, Initial residual = 0.000372329, Final residual = 3.20919e-05, No Iterations 3
smoothSolver:  Solving for k, Initial residual = 0.00475458, Final residual = 0.000268893, No Iterations 4
ExecutionTime = 10.46 s  ClockTime = 11 s

forceCoeffs forceCoeffs1 write:
    Cm    = 0.167275
    Cd    = 0.410281
    Cl    = 0.0634344
    Cl(f) = 0.198992
    Cl(r) = -0.135557

Time = 33

smoothSolver:  Solving for Ux, Initial residual = 0.00312754, Final residual = 0.000254469, No Iterations 10
smoothSolver:  Solving for Uy, Initial residual = 0.0729559, Final residual = 0.00729474, No Iterations 9
smoothSolver:  Solving for Uz, Initial residual = 0.0596058, Final residual = 0.0059225, No Iterations 9
GAMG:  Solving for p, Initial residual = 0.0258938, Final residual = 0.000203154, No Iterations 4
time step continuity errors : sum local = 0.000367825, global = -1.30816e-05, cumulative = 1.31071e-05
smoothSolver:  Solving for omega, Initial residual = 0.00036189, Final residual = 3.13312e-05, No Iterations 3
smoothSolver:  Solving for k, Initial residual = 0.00467031, Final residual = 0.000264771, No Iterations 4
ExecutionTime = 10.78 s  ClockTime = 11 s

forceCoeffs forceCoeffs1 write:
    Cm    = 0.165835
    Cd    = 0.407279
    Cl    = 0.0675871
    Cl(f) = 0.199629
    Cl(r) = -0.132042

Time = 34

smoothSolver:  Solving for Ux, Initial residual = 0.00303505, Final residual = 0.000247638, No Iterations 10
smoothSolver:  Solving for Uy, Initial residual = 0.0710264, Final residual = 0.0056451, No Iterations 10
smoothSolver:  Solving for Uz, Initial residual = 0.0574404, Final residual = 0.00574025, No Iterations 9
GAMG:  Solving for p, Initial residual = 0.0255028, Final residual = 0.000201945, No Iterations 4
time step continuity errors : sum local = 0.000357959, global = -1.19952e-05, cumulative = 1.11185e-06
smoothSolver:  Solving for omega, Initial residual = 0.000351518, Final residual = 3.0716e-05, No Iterations 3
smoothSolver:  Solving for k, Initial residual = 0.00460043, Final residual = 0.000260392, No Iterations 4
ExecutionTime = 11.09 s  ClockTime = 11 s

forceCoeffs forceCoeffs1 write:
    Cm    = 0.164474
    Cd    = 0.404889
    Cl    = 0.0708554
    Cl(f) = 0.199902
    Cl(r) = -0.129046

Time = 35

smoothSolver:  Solving for Ux, Initial residual = 0.00294104, Final residual = 0.000241852, No Iterations 10
smoothSolver:  Solving for Uy, Initial residual = 0.0678495, Final residual = 0.00542366, No Iterations 10
smoothSolver:  Solving for Uz, Initial residual = 0.0549291, Final residual = 0.00439026, No Iterations 10
GAMG:  Solving for p, Initial residual = 0.0249639, Final residual = 0.000200933, No Iterations 4
time step continuity errors : sum local = 0.000349674, global = -1.0396e-05, cumulative = -9.2842e-06
smoothSolver:  Solving for omega, Initial residual = 0.000343441, Final residual = 3.01683e-05, No Iterations 3
smoothSolver:  Solving for k, Initial residual = 0.00453121, Final residual = 0.000256905, No Iterations 4
ExecutionTime = 11.42 s  ClockTime = 12 s

forceCoeffs forceCoeffs1 write:
    Cm    = 0.162556
    Cd    = 0.402089
    Cl    = 0.0731233
    Cl(f) = 0.199118
    Cl(r) = -0.125994

Time = 36

smoothSolver:  Solving for Ux, Initial residual = 0.0028528, Final residual = 0.000237601, No Iterations 10
smoothSolver:  Solving for Uy, Initial residual = 0.0647217, Final residual = 0.00521588, No Iterations 10
smoothSolver:  Solving for Uz, Initial residual = 0.0518271, Final residual = 0.00416749, No Iterations 10
GAMG:  Solving for p, Initial residual = 0.024324, Final residual = 0.000193041, No Iterations 4
time step continuity errors : sum local = 0.000330942, global = -8.07681e-06, cumulative = -1.7361e-05
smoothSolver:  Solving for omega, Initial residual = 0.000333871, Final residual = 2.96887e-05, No Iterations 3
smoothSolver:  Solving for k, Initial residual = 0.00446943, Final residual = 0.000254168, No Iterations 4
ExecutionTime = 11.74 s  ClockTime = 12 s

forceCoeffs forceCoeffs1 write:
    Cm    = 0.16056
    Cd    = 0.399372
    Cl    = 0.0744015
    Cl(f) = 0.197761
    Cl(r) = -0.12336

Time = 37

smoothSolver:  Solving for Ux, Initial residual = 0.00276925, Final residual = 0.000233808, No Iterations 10
smoothSolver:  Solving for Uy, Initial residual = 0.0618487, Final residual = 0.00502344, No Iterations 10
smoothSolver:  Solving for Uz, Initial residual = 0.0489476, Final residual = 0.00396192, No Iterations 10
GAMG:  Solving for p, Initial residual = 0.0237073, Final residual = 0.000183462, No Iterations 4
time step continuity errors : sum local = 0.000310721, global = -6.6918e-06, cumulative = -2.40528e-05
smoothSolver:  Solving for omega, Initial residual = 0.000326027, Final residual = 2.91084e-05, No Iterations 3
smoothSolver:  Solving for k, Initial residual = 0.00438676, Final residual = 0.0002507, No Iterations 4
ExecutionTime = 12.05 s  ClockTime = 12 s

forceCoeffs forceCoeffs1 write:
    Cm    = 0.158399
    Cd    = 0.396559
    Cl    = 0.0747711
    Cl(f) = 0.195785
    Cl(r) = -0.121014

Time = 38

smoothSolver:  Solving for Ux, Initial residual = 0.00269489, Final residual = 0.000230501, No Iterations 10
smoothSolver:  Solving for Uy, Initial residual = 0.0595721, Final residual = 0.00488786, No Iterations 10
smoothSolver:  Solving for Uz, Initial residual = 0.0468038, Final residual = 0.00381945, No Iterations 10
GAMG:  Solving for p, Initial residual = 0.0230809, Final residual = 0.000176506, No Iterations 4
time step continuity errors : sum local = 0.000295974, global = -6.55332e-06, cumulative = -3.06061e-05
smoothSolver:  Solving for omega, Initial residual = 0.000318123, Final residual = 2.84761e-05, No Iterations 3
smoothSolver:  Solving for k, Initial residual = 0.00429998, Final residual = 0.000246069, No Iterations 4
ExecutionTime = 12.37 s  ClockTime = 13 s

forceCoeffs forceCoeffs1 write:
    Cm    = 0.157121
    Cd    = 0.394871
    Cl    = 0.0744975
    Cl(f) = 0.19437
    Cl(r) = -0.119873

Time = 39

smoothSolver:  Solving for Ux, Initial residual = 0.00262788, Final residual = 0.000228006, No Iterations 10
smoothSolver:  Solving for Uy, Initial residual = 0.0577241, Final residual = 0.00477389, No Iterations 10
smoothSolver:  Solving for Uz, Initial residual = 0.0452909, Final residual = 0.00372529, No Iterations 10
GAMG:  Solving for p, Initial residual = 0.0225082, Final residual = 0.000173693, No Iterations 4
time step continuity errors : sum local = 0.000288976, global = -7.46098e-06, cumulative = -3.80671e-05
smoothSolver:  Solving for omega, Initial residual = 0.000310756, Final residual = 2.77958e-05, No Iterations 3
smoothSolver:  Solving for k, Initial residual = 0.00422724, Final residual = 0.000241637, No Iterations 4
ExecutionTime = 12.69 s  ClockTime = 13 s

forceCoeffs forceCoeffs1 write:
    Cm    = 0.156655
    Cd    = 0.393863
    Cl    = 0.0740504
    Cl(f) = 0.19368
    Cl(r) = -0.119629

Time = 40

smoothSolver:  Solving for Ux, Initial residual = 0.00257053, Final residual = 0.0002252, No Iterations 10
smoothSolver:  Solving for Uy, Initial residual = 0.0558577, Final residual = 0.00463615, No Iterations 10
smoothSolver:  Solving for Uz, Initial residual = 0.0441597, Final residual = 0.00365852, No Iterations 10
GAMG:  Solving for p, Initial residual = 0.0218876, Final residual = 0.000173248, No Iterations 4
time step continuity errors : sum local = 0.000286157, global = -8.73165e-06, cumulative = -4.67988e-05
smoothSolver:  Solving for omega, Initial residual = 0.000303138, Final residual = 2.72865e-05, No Iterations 3
bounding omega, min: -510.219 max: 8.5255e+06 average: 924.842
smoothSolver:  Solving for k, Initial residual = 0.00415353, Final residual = 0.000237896, No Iterations 4
ExecutionTime = 13.01 s  ClockTime = 13 s

forceCoeffs forceCoeffs1 write:
    Cm    = 0.157171
    Cd    = 0.393874
    Cl    = 0.073158
    Cl(f) = 0.19375
    Cl(r) = -0.120592

Time = 41

smoothSolver:  Solving for Ux, Initial residual = 0.00252493, Final residual = 0.000222112, No Iterations 10
smoothSolver:  Solving for Uy, Initial residual = 0.0538098, Final residual = 0.00448437, No Iterations 10
smoothSolver:  Solving for Uz, Initial residual = 0.0433256, Final residual = 0.00360409, No Iterations 10
GAMG:  Solving for p, Initial residual = 0.0212717, Final residual = 0.000169612, No Iterations 4
time step continuity errors : sum local = 0.000278489, global = -9.1054e-06, cumulative = -5.59042e-05
smoothSolver:  Solving for omega, Initial residual = 0.000296732, Final residual = 2.67962e-05, No Iterations 3
smoothSolver:  Solving for k, Initial residual = 0.00407109, Final residual = 0.000234441, No Iterations 4
ExecutionTime = 13.33 s  ClockTime = 14 s

forceCoeffs forceCoeffs1 write:
    Cm    = 0.158001
    Cd    = 0.394143
    Cl    = 0.0720705
    Cl(f) = 0.194036
    Cl(r) = -0.121966

Time = 42

smoothSolver:  Solving for Ux, Initial residual = 0.00248673, Final residual = 0.000219445, No Iterations 10
smoothSolver:  Solving for Uy, Initial residual = 0.0517423, Final residual = 0.00432684, No Iterations 10
smoothSolver:  Solving for Uz, Initial residual = 0.0424656, Final residual = 0.00354098, No Iterations 10
GAMG:  Solving for p, Initial residual = 0.0207312, Final residual = 0.000165961, No Iterations 4
time step continuity errors : sum local = 0.000271286, global = -8.38548e-06, cumulative = -6.42896e-05
smoothSolver:  Solving for omega, Initial residual = 0.000288591, Final residual = 2.62654e-05, No Iterations 3
smoothSolver:  Solving for k, Initial residual = 0.00399204, Final residual = 0.000229982, No Iterations 4
ExecutionTime = 13.64 s  ClockTime = 14 s

forceCoeffs forceCoeffs1 write:
    Cm    = 0.15874
    Cd    = 0.394075
    Cl    = 0.0701048
    Cl(f) = 0.193792
    Cl(r) = -0.123688

Time = 43

smoothSolver:  Solving for Ux, Initial residual = 0.00245236, Final residual = 0.000216061, No Iterations 10
smoothSolver:  Solving for Uy, Initial residual = 0.0499496, Final residual = 0.00418222, No Iterations 10
smoothSolver:  Solving for Uz, Initial residual = 0.0416096, Final residual = 0.00346568, No Iterations 10
GAMG:  Solving for p, Initial residual = 0.0202692, Final residual = 0.000161946, No Iterations 4
time step continuity errors : sum local = 0.000263885, global = -7.55613e-06, cumulative = -7.18458e-05
smoothSolver:  Solving for omega, Initial residual = 0.00028229, Final residual = 2.57173e-05, No Iterations 3
smoothSolver:  Solving for k, Initial residual = 0.00392209, Final residual = 0.000225149, No Iterations 4
ExecutionTime = 13.97 s  ClockTime = 14 s

forceCoeffs forceCoeffs1 write:
    Cm    = 0.15918
    Cd    = 0.393925
    Cl    = 0.0680982
    Cl(f) = 0.193229
    Cl(r) = -0.125131

Time = 44

smoothSolver:  Solving for Ux, Initial residual = 0.00241084, Final residual = 0.00021122, No Iterations 10
smoothSolver:  Solving for Uy, Initial residual = 0.0484753, Final residual = 0.00404334, No Iterations 10
smoothSolver:  Solving for Uz, Initial residual = 0.0406562, Final residual = 0.00337258, No Iterations 10
GAMG:  Solving for p, Initial residual = 0.0198764, Final residual = 0.000160624, No Iterations 4
time step continuity errors : sum local = 0.000260935, global = -7.81102e-06, cumulative = -7.96568e-05
smoothSolver:  Solving for omega, Initial residual = 0.000274927, Final residual = 2.51176e-05, No Iterations 3
smoothSolver:  Solving for k, Initial residual = 0.00384959, Final residual = 0.000220726, No Iterations 4
ExecutionTime = 14.28 s  ClockTime = 15 s

forceCoeffs forceCoeffs1 write:
    Cm    = 0.159424
    Cd    = 0.393891
    Cl    = 0.0668244
    Cl(f) = 0.192836
    Cl(r) = -0.126011

Time = 45

smoothSolver:  Solving for Ux, Initial residual = 0.00236091, Final residual = 0.000205832, No Iterations 10
smoothSolver:  Solving for Uy, Initial residual = 0.0472147, Final residual = 0.003901, No Iterations 10
smoothSolver:  Solving for Uz, Initial residual = 0.0394078, Final residual = 0.00324573, No Iterations 10
GAMG:  Solving for p, Initial residual = 0.0195616, Final residual = 0.000160417, No Iterations 4
time step continuity errors : sum local = 0.000259375, global = -8.78106e-06, cumulative = -8.84379e-05
smoothSolver:  Solving for omega, Initial residual = 0.000268247, Final residual = 2.44682e-05, No Iterations 3
smoothSolver:  Solving for k, Initial residual = 0.00378541, Final residual = 0.000217351, No Iterations 4
ExecutionTime = 14.6 s  ClockTime = 15 s

forceCoeffs forceCoeffs1 write:
    Cm    = 0.159623
    Cd    = 0.394172
    Cl    = 0.0664689
    Cl(f) = 0.192857
    Cl(r) = -0.126388

Time = 46

smoothSolver:  Solving for Ux, Initial residual = 0.0023003, Final residual = 0.000200443, No Iterations 10
smoothSolver:  Solving for Uy, Initial residual = 0.0459241, Final residual = 0.00375193, No Iterations 10
smoothSolver:  Solving for Uz, Initial residual = 0.0380133, Final residual = 0.00309579, No Iterations 10
GAMG:  Solving for p, Initial residual = 0.0192486, Final residual = 0.000160715, No Iterations 4
time step continuity errors : sum local = 0.000258285, global = -9.78536e-06, cumulative = -9.82232e-05
smoothSolver:  Solving for omega, Initial residual = 0.000260619, Final residual = 2.38021e-05, No Iterations 3
smoothSolver:  Solving for k, Initial residual = 0.00371621, Final residual = 0.000213816, No Iterations 4
ExecutionTime = 14.92 s  ClockTime = 15 s

forceCoeffs forceCoeffs1 write:
    Cm    = 0.159886
    Cd    = 0.394697
    Cl    = 0.0668352
    Cl(f) = 0.193303
    Cl(r) = -0.126468

Time = 47

smoothSolver:  Solving for Ux, Initial residual = 0.0022317, Final residual = 0.000194546, No Iterations 10
smoothSolver:  Solving for Uy, Initial residual = 0.0445869, Final residual = 0.00360617, No Iterations 10
smoothSolver:  Solving for Uz, Initial residual = 0.0364558, Final residual = 0.00294531, No Iterations 10
GAMG:  Solving for p, Initial residual = 0.018853, Final residual = 0.000157706, No Iterations 4
time step continuity errors : sum local = 0.000251737, global = -8.5895e-06, cumulative = -0.000106813
smoothSolver:  Solving for omega, Initial residual = 0.000252704, Final residual = 2.3114e-05, No Iterations 3
smoothSolver:  Solving for k, Initial residual = 0.00363471, Final residual = 0.000209741, No Iterations 4
ExecutionTime = 15.23 s  ClockTime = 16 s

forceCoeffs forceCoeffs1 write:
    Cm    = 0.160204
    Cd    = 0.395821
    Cl    = 0.0676231
    Cl(f) = 0.194015
    Cl(r) = -0.126392

Time = 48

smoothSolver:  Solving for Ux, Initial residual = 0.00215938, Final residual = 0.000188334, No Iterations 10
smoothSolver:  Solving for Uy, Initial residual = 0.0432692, Final residual = 0.00349042, No Iterations 10
smoothSolver:  Solving for Uz, Initial residual = 0.0350377, Final residual = 0.00281778, No Iterations 10
GAMG:  Solving for p, Initial residual = 0.018415, Final residual = 0.000152457, No Iterations 4
time step continuity errors : sum local = 0.000241753, global = -5.1369e-06, cumulative = -0.00011195
smoothSolver:  Solving for omega, Initial residual = 0.000244673, Final residual = 2.24669e-05, No Iterations 3
smoothSolver:  Solving for k, Initial residual = 0.00354955, Final residual = 0.000205575, No Iterations 4
ExecutionTime = 15.55 s  ClockTime = 16 s

forceCoeffs forceCoeffs1 write:
    Cm    = 0.160394
    Cd    = 0.397307
    Cl    = 0.0690043
    Cl(f) = 0.194896
    Cl(r) = -0.125892

Time = 49

smoothSolver:  Solving for Ux, Initial residual = 0.0020944, Final residual = 0.000183054, No Iterations 10
smoothSolver:  Solving for Uy, Initial residual = 0.0421178, Final residual = 0.00340675, No Iterations 10
smoothSolver:  Solving for Uz, Initial residual = 0.0337754, Final residual = 0.00272065, No Iterations 10
GAMG:  Solving for p, Initial residual = 0.0179477, Final residual = 0.000147264, No Iterations 4
time step continuity errors : sum local = 0.00023208, global = -2.04496e-06, cumulative = -0.000113995
smoothSolver:  Solving for omega, Initial residual = 0.000237443, Final residual = 2.17905e-05, No Iterations 3
smoothSolver:  Solving for k, Initial residual = 0.00346618, Final residual = 0.000201043, No Iterations 4
ExecutionTime = 15.88 s  ClockTime = 16 s

forceCoeffs forceCoeffs1 write:
    Cm    = 0.160539
    Cd    = 0.399232
    Cl    = 0.0705573
    Cl(f) = 0.195818
    Cl(r) = -0.12526

Time = 50

smoothSolver:  Solving for Ux, Initial residual = 0.00203458, Final residual = 0.000178931, No Iterations 10
smoothSolver:  Solving for Uy, Initial residual = 0.0411491, Final residual = 0.00332694, No Iterations 10
smoothSolver:  Solving for Uz, Initial residual = 0.0328877, Final residual = 0.00265351, No Iterations 10
GAMG:  Solving for p, Initial residual = 0.0175272, Final residual = 0.000143457, No Iterations 4
time step continuity errors : sum local = 0.000225123, global = -8.9412e-08, cumulative = -0.000114084
smoothSolver:  Solving for omega, Initial residual = 0.000231147, Final residual = 2.11523e-05, No Iterations 3
smoothSolver:  Solving for k, Initial residual = 0.00339172, Final residual = 0.000196316, No Iterations 4
ExecutionTime = 16.2 s  ClockTime = 17 s

forceCoeffs forceCoeffs1 write:
    Cm    = 0.160525
    Cd    = 0.401118
    Cl    = 0.0718715
    Cl(f) = 0.19646
    Cl(r) = -0.124589

Time = 51

smoothSolver:  Solving for Ux, Initial residual = 0.00197857, Final residual = 0.000174858, No Iterations 10
smoothSolver:  Solving for Uy, Initial residual = 0.0401633, Final residual = 0.00323815, No Iterations 10
smoothSolver:  Solving for Uz, Initial residual = 0.0322512, Final residual = 0.00259248, No Iterations 10
GAMG:  Solving for p, Initial residual = 0.0171165, Final residual = 0.000141174, No Iterations 4
time step continuity errors : sum local = 0.000221063, global = 1.70749e-06, cumulative = -0.000112376
smoothSolver:  Solving for omega, Initial residual = 0.000224625, Final residual = 2.05509e-05, No Iterations 3
smoothSolver:  Solving for k, Initial residual = 0.00331276, Final residual = 0.000190984, No Iterations 4
ExecutionTime = 16.54 s  ClockTime = 17 s

forceCoeffs forceCoeffs1 write:
    Cm    = 0.160486
    Cd    = 0.402912
    Cl    = 0.0726023
    Cl(f) = 0.196787
    Cl(r) = -0.124185

Time = 52

smoothSolver:  Solving for Ux, Initial residual = 0.00192807, Final residual = 0.000170565, No Iterations 10
smoothSolver:  Solving for Uy, Initial residual = 0.039029, Final residual = 0.00314651, No Iterations 10
smoothSolver:  Solving for Uz, Initial residual = 0.0317214, Final residual = 0.00252729, No Iterations 10
GAMG:  Solving for p, Initial residual = 0.0166271, Final residual = 0.000139109, No Iterations 4
time step continuity errors : sum local = 0.000217459, global = 2.55128e-06, cumulative = -0.000109825
smoothSolver:  Solving for omega, Initial residual = 0.000218477, Final residual = 2.00084e-05, No Iterations 3
smoothSolver:  Solving for k, Initial residual = 0.00324661, Final residual = 0.000186381, No Iterations 4
ExecutionTime = 16.86 s  ClockTime = 17 s

forceCoeffs forceCoeffs1 write:
    Cm    = 0.160152
    Cd    = 0.40409
    Cl    = 0.0730121
    Cl(f) = 0.196658
    Cl(r) = -0.123646

Time = 53

smoothSolver:  Solving for Ux, Initial residual = 0.00188031, Final residual = 0.000165993, No Iterations 10
smoothSolver:  Solving for Uy, Initial residual = 0.0379829, Final residual = 0.00307457, No Iterations 10
smoothSolver:  Solving for Uz, Initial residual = 0.031184, Final residual = 0.00311023, No Iterations 9
GAMG:  Solving for p, Initial residual = 0.0160751, Final residual = 0.000134086, No Iterations 4
time step continuity errors : sum local = 0.000209388, global = 2.22926e-06, cumulative = -0.000107596
smoothSolver:  Solving for omega, Initial residual = 0.000212343, Final residual = 1.94508e-05, No Iterations 3
bounding omega, min: -12.3369 max: 8.5255e+06 average: 927.331
smoothSolver:  Solving for k, Initial residual = 0.00317742, Final residual = 0.00018258, No Iterations 4
ExecutionTime = 17.19 s  ClockTime = 18 s

forceCoeffs forceCoeffs1 write:
    Cm    = 0.159563
    Cd    = 0.404678
    Cl    = 0.073207
    Cl(f) = 0.196167
    Cl(r) = -0.12296

Time = 54

smoothSolver:  Solving for Ux, Initial residual = 0.00183558, Final residual = 0.000161339, No Iterations 10
smoothSolver:  Solving for Uy, Initial residual = 0.0368725, Final residual = 0.00300121, No Iterations 10
smoothSolver:  Solving for Uz, Initial residual = 0.0307001, Final residual = 0.00304754, No Iterations 9
GAMG:  Solving for p, Initial residual = 0.0155419, Final residual = 0.000131267, No Iterations 4
time step continuity errors : sum local = 0.000204645, global = 1.59842e-06, cumulative = -0.000105998
smoothSolver:  Solving for omega, Initial residual = 0.00020652, Final residual = 1.8947e-05, No Iterations 3
smoothSolver:  Solving for k, Initial residual = 0.00310477, Final residual = 0.000179549, No Iterations 4
ExecutionTime = 17.51 s  ClockTime = 18 s

forceCoeffs forceCoeffs1 write:
    Cm    = 0.158715
    Cd    = 0.404598
    Cl    = 0.0734096
    Cl(f) = 0.19542
    Cl(r) = -0.12201

Time = 55

smoothSolver:  Solving for Ux, Initial residual = 0.00178664, Final residual = 0.000157405, No Iterations 10
smoothSolver:  Solving for Uy, Initial residual = 0.0356018, Final residual = 0.00290917, No Iterations 10
smoothSolver:  Solving for Uz, Initial residual = 0.0299381, Final residual = 0.00297457, No Iterations 9
GAMG:  Solving for p, Initial residual = 0.0150758, Final residual = 0.000126185, No Iterations 4
time step continuity errors : sum local = 0.000196351, global = 1.04673e-06, cumulative = -0.000104951
smoothSolver:  Solving for omega, Initial residual = 0.000201258, Final residual = 1.84621e-05, No Iterations 3
bounding omega, min: -98.5018 max: 8.5255e+06 average: 929.1
smoothSolver:  Solving for k, Initial residual = 0.00304381, Final residual = 0.000175739, No Iterations 4
ExecutionTime = 17.83 s  ClockTime = 18 s

forceCoeffs forceCoeffs1 write:
    Cm    = 0.157767
    Cd    = 0.403991
    Cl    = 0.0735721
    Cl(f) = 0.194553
    Cl(r) = -0.12098

Time = 56

smoothSolver:  Solving for Ux, Initial residual = 0.00173681, Final residual = 0.000153738, No Iterations 10
smoothSolver:  Solving for Uy, Initial residual = 0.0343207, Final residual = 0.0028105, No Iterations 10
smoothSolver:  Solving for Uz, Initial residual = 0.0290479, Final residual = 0.00289501, No Iterations 9
GAMG:  Solving for p, Initial residual = 0.0146111, Final residual = 0.000119765, No Iterations 4
time step continuity errors : sum local = 0.000185978, global = 8.68287e-07, cumulative = -0.000104083
smoothSolver:  Solving for omega, Initial residual = 0.000195763, Final residual = 1.79902e-05, No Iterations 3
bounding omega, min: -89.0265 max: 8.5255e+06 average: 929.765
smoothSolver:  Solving for k, Initial residual = 0.00296443, Final residual = 0.000171043, No Iterations 4
ExecutionTime = 18.16 s  ClockTime = 19 s

forceCoeffs forceCoeffs1 write:
    Cm    = 0.156778
    Cd    = 0.402967
    Cl    = 0.0737015
    Cl(f) = 0.193629
    Cl(r) = -0.119928

Time = 57

smoothSolver:  Solving for Ux, Initial residual = 0.00168223, Final residual = 0.000149655, No Iterations 10
smoothSolver:  Solving for Uy, Initial residual = 0.0332141, Final residual = 0.00271272, No Iterations 10
smoothSolver:  Solving for Uz, Initial residual = 0.0281268, Final residual = 0.00280335, No Iterations 9
GAMG:  Solving for p, Initial residual = 0.0141993, Final residual = 0.000114879, No Iterations 4
time step continuity errors : sum local = 0.00017793, global = 1.0704e-06, cumulative = -0.000103012
smoothSolver:  Solving for omega, Initial residual = 0.000190906, Final residual = 1.75466e-05, No Iterations 3
bounding omega, min: -95.6318 max: 8.5255e+06 average: 930.662
smoothSolver:  Solving for k, Initial residual = 0.00287886, Final residual = 0.000166292, No Iterations 4
ExecutionTime = 18.48 s  ClockTime = 19 s

forceCoeffs forceCoeffs1 write:
    Cm    = 0.155911
    Cd    = 0.401837
    Cl    = 0.073805
    Cl(f) = 0.192813
    Cl(r) = -0.119008

Time = 58

smoothSolver:  Solving for Ux, Initial residual = 0.00162415, Final residual = 0.000145538, No Iterations 10
smoothSolver:  Solving for Uy, Initial residual = 0.0321605, Final residual = 0.00261417, No Iterations 10
smoothSolver:  Solving for Uz, Initial residual = 0.0272404, Final residual = 0.00272078, No Iterations 9
GAMG:  Solving for p, Initial residual = 0.0138519, Final residual = 0.000111664, No Iterations 4
time step continuity errors : sum local = 0.000172463, global = 1.36345e-06, cumulative = -0.000101649
smoothSolver:  Solving for omega, Initial residual = 0.000186917, Final residual = 1.71419e-05, No Iterations 3
bounding omega, min: -167.196 max: 8.5255e+06 average: 932.304
smoothSolver:  Solving for k, Initial residual = 0.00279256, Final residual = 0.00016156, No Iterations 4
ExecutionTime = 18.8 s  ClockTime = 19 s

forceCoeffs forceCoeffs1 write:
    Cm    = 0.155215
    Cd    = 0.40078
    Cl    = 0.0740342
    Cl(f) = 0.192232
    Cl(r) = -0.118197

Time = 59

smoothSolver:  Solving for Ux, Initial residual = 0.00157227, Final residual = 0.0001413, No Iterations 10
smoothSolver:  Solving for Uy, Initial residual = 0.0311951, Final residual = 0.00251989, No Iterations 10
smoothSolver:  Solving for Uz, Initial residual = 0.0264039, Final residual = 0.00209587, No Iterations 10
GAMG:  Solving for p, Initial residual = 0.0136175, Final residual = 0.0001094, No Iterations 4
time step continuity errors : sum local = 0.0001685, global = 1.47931e-06, cumulative = -0.000100169
smoothSolver:  Solving for omega, Initial residual = 0.000183072, Final residual = 1.6782e-05, No Iterations 3
bounding omega, min: -213.899 max: 8.5255e+06 average: 932.947
smoothSolver:  Solving for k, Initial residual = 0.00271513, Final residual = 0.000156787, No Iterations 4
ExecutionTime = 19.11 s  ClockTime = 19 s

forceCoeffs forceCoeffs1 write:
    Cm    = 0.154786
    Cd    = 0.400103
    Cl    = 0.0742803
    Cl(f) = 0.191927
    Cl(r) = -0.117646

Time = 60

smoothSolver:  Solving for Ux, Initial residual = 0.00152847, Final residual = 0.000137445, No Iterations 10
smoothSolver:  Solving for Uy, Initial residual = 0.03034, Final residual = 0.0024526, No Iterations 10
smoothSolver:  Solving for Uz, Initial residual = 0.025555, Final residual = 0.00203696, No Iterations 10
GAMG:  Solving for p, Initial residual = 0.0133922, Final residual = 0.000104541, No Iterations 4
time step continuity errors : sum local = 0.000160574, global = 1.74071e-06, cumulative = -9.84286e-05
smoothSolver:  Solving for omega, Initial residual = 0.000179719, Final residual = 1.64083e-05, No Iterations 3
bounding omega, min: -289.859 max: 8.5255e+06 average: 933.879
smoothSolver:  Solving for k, Initial residual = 0.00265611, Final residual = 0.00015235, No Iterations 4
ExecutionTime = 19.44 s  ClockTime = 20 s

forceCoeffs forceCoeffs1 write:
    Cm    = 0.154522
    Cd    = 0.39965
    Cl    = 0.0744415
    Cl(f) = 0.191743
    Cl(r) = -0.117302

Time = 61

smoothSolver:  Solving for Ux, Initial residual = 0.00149431, Final residual = 0.000134299, No Iterations 10
smoothSolver:  Solving for Uy, Initial residual = 0.0295603, Final residual = 0.00240701, No Iterations 10
smoothSolver:  Solving for Uz, Initial residual = 0.0248502, Final residual = 0.00199622, No Iterations 10
GAMG:  Solving for p, Initial residual = 0.0131441, Final residual = 0.000103445, No Iterations 4
time step continuity errors : sum local = 0.000158482, global = 2.34837e-06, cumulative = -9.60803e-05
smoothSolver:  Solving for omega, Initial residual = 0.000176746, Final residual = 1.60716e-05, No Iterations 3
bounding omega, min: -184.479 max: 8.5255e+06 average: 935.35
smoothSolver:  Solving for k, Initial residual = 0.00259521, Final residual = 0.000148969, No Iterations 4
ExecutionTime = 19.76 s  ClockTime = 20 s

forceCoeffs forceCoeffs1 write:
    Cm    = 0.154433
    Cd    = 0.399462
    Cl    = 0.0743469
    Cl(f) = 0.191606
    Cl(r) = -0.117259

Time = 62

smoothSolver:  Solving for Ux, Initial residual = 0.00146043, Final residual = 0.000131559, No Iterations 10
smoothSolver:  Solving for Uy, Initial residual = 0.0288513, Final residual = 0.00236766, No Iterations 10
smoothSolver:  Solving for Uz, Initial residual = 0.0244644, Final residual = 0.00196782, No Iterations 10
GAMG:  Solving for p, Initial residual = 0.0128744, Final residual = 0.00010355, No Iterations 4
time step continuity errors : sum local = 0.000158381, global = 2.39399e-06, cumulative = -9.36863e-05
smoothSolver:  Solving for omega, Initial residual = 0.000174657, Final residual = 1.57688e-05, No Iterations 3
bounding omega, min: -115.18 max: 8.5255e+06 average: 935.858
smoothSolver:  Solving for k, Initial residual = 0.00253711, Final residual = 0.000146017, No Iterations 4
ExecutionTime = 20.08 s  ClockTime = 20 s

forceCoeffs forceCoeffs1 write:
    Cm    = 0.154596
    Cd    = 0.399624
    Cl    = 0.0739446
    Cl(f) = 0.191568
    Cl(r) = -0.117623

Time = 63

smoothSolver:  Solving for Ux, Initial residual = 0.00142847, Final residual = 0.000128807, No Iterations 10
smoothSolver:  Solving for Uy, Initial residual = 0.028209, Final residual = 0.00231553, No Iterations 10
smoothSolver:  Solving for Uz, Initial residual = 0.0243208, Final residual = 0.00194244, No Iterations 10
GAMG:  Solving for p, Initial residual = 0.0125508, Final residual = 0.000101587, No Iterations 4
time step continuity errors : sum local = 0.000155258, global = 2.21765e-06, cumulative = -9.14686e-05
smoothSolver:  Solving for omega, Initial residual = 0.000170864, Final residual = 1.54138e-05, No Iterations 3
smoothSolver:  Solving for k, Initial residual = 0.00246954, Final residual = 0.000142576, No Iterations 4
ExecutionTime = 20.41 s  ClockTime = 21 s

forceCoeffs forceCoeffs1 write:
    Cm    = 0.155087
    Cd    = 0.400345
    Cl    = 0.0733303
    Cl(f) = 0.191752
    Cl(r) = -0.118422

Time = 64

smoothSolver:  Solving for Ux, Initial residual = 0.00139589, Final residual = 0.000125504, No Iterations 10
smoothSolver:  Solving for Uy, Initial residual = 0.0276124, Final residual = 0.00224971, No Iterations 10
smoothSolver:  Solving for Uz, Initial residual = 0.0241823, Final residual = 0.00192048, No Iterations 10
GAMG:  Solving for p, Initial residual = 0.0122116, Final residual = 9.89269e-05, No Iterations 4
time step continuity errors : sum local = 0.000151286, global = 2.34322e-06, cumulative = -8.91254e-05
smoothSolver:  Solving for omega, Initial residual = 0.000167847, Final residual = 1.51255e-05, No Iterations 3
bounding omega, min: -19.4701 max: 8.5255e+06 average: 937.638
smoothSolver:  Solving for k, Initial residual = 0.00240424, Final residual = 0.000138582, No Iterations 4
ExecutionTime = 20.73 s  ClockTime = 21 s

forceCoeffs forceCoeffs1 write:
    Cm    = 0.155911
    Cd    = 0.40149
    Cl    = 0.0729896
    Cl(f) = 0.192406
    Cl(r) = -0.119416

Time = 65

smoothSolver:  Solving for Ux, Initial residual = 0.00136394, Final residual = 0.000122093, No Iterations 10
smoothSolver:  Solving for Uy, Initial residual = 0.0270782, Final residual = 0.00218026, No Iterations 10
smoothSolver:  Solving for Uz, Initial residual = 0.0239856, Final residual = 0.00239118, No Iterations 9
GAMG:  Solving for p, Initial residual = 0.0118848, Final residual = 9.50265e-05, No Iterations 4
time step continuity errors : sum local = 0.000145448, global = 2.8479e-06, cumulative = -8.62775e-05
smoothSolver:  Solving for omega, Initial residual = 0.000165304, Final residual = 1.48171e-05, No Iterations 3
smoothSolver:  Solving for k, Initial residual = 0.00233426, Final residual = 0.000134404, No Iterations 4
ExecutionTime = 21.04 s  ClockTime = 21 s

forceCoeffs forceCoeffs1 write:
    Cm    = 0.156934
    Cd    = 0.402881
    Cl    = 0.07297
    Cl(f) = 0.193419
    Cl(r) = -0.120449

Time = 66

smoothSolver:  Solving for Ux, Initial residual = 0.00133053, Final residual = 0.000118385, No Iterations 10
smoothSolver:  Solving for Uy, Initial residual = 0.0266654, Final residual = 0.00212242, No Iterations 10
smoothSolver:  Solving for Uz, Initial residual = 0.0237951, Final residual = 0.00236645, No Iterations 9
GAMG:  Solving for p, Initial residual = 0.01166, Final residual = 9.2502e-05, No Iterations 4
time step continuity errors : sum local = 0.000141697, global = 3.58807e-06, cumulative = -8.26894e-05
smoothSolver:  Solving for omega, Initial residual = 0.00016196, Final residual = 1.44727e-05, No Iterations 3
smoothSolver:  Solving for k, Initial residual = 0.00226479, Final residual = 0.000130094, No Iterations 4
ExecutionTime = 21.36 s  ClockTime = 22 s

forceCoeffs forceCoeffs1 write:
    Cm    = 0.158032
    Cd    = 0.404246
    Cl    = 0.0733113
    Cl(f) = 0.194687
    Cl(r) = -0.121376

Time = 67

smoothSolver:  Solving for Ux, Initial residual = 0.00129722, Final residual = 0.000114622, No Iterations 10
smoothSolver:  Solving for Uy, Initial residual = 0.0264031, Final residual = 0.00262372, No Iterations 9
smoothSolver:  Solving for Uz, Initial residual = 0.0234783, Final residual = 0.00231804, No Iterations 9
GAMG:  Solving for p, Initial residual = 0.0114615, Final residual = 8.95903e-05, No Iterations 4
time step continuity errors : sum local = 0.000137296, global = 4.47014e-06, cumulative = -7.82193e-05
smoothSolver:  Solving for omega, Initial residual = 0.000159325, Final residual = 1.41354e-05, No Iterations 3
smoothSolver:  Solving for k, Initial residual = 0.00219856, Final residual = 0.000125889, No Iterations 4
ExecutionTime = 21.67 s  ClockTime = 22 s

forceCoeffs forceCoeffs1 write:
    Cm    = 0.159021
    Cd    = 0.405466
    Cl    = 0.0736269
    Cl(f) = 0.195834
    Cl(r) = -0.122207

Time = 68

smoothSolver:  Solving for Ux, Initial residual = 0.00126584, Final residual = 0.000110973, No Iterations 10
smoothSolver:  Solving for Uy, Initial residual = 0.0263138, Final residual = 0.00260428, No Iterations 9
smoothSolver:  Solving for Uz, Initial residual = 0.023062, Final residual = 0.00226128, No Iterations 9
GAMG:  Solving for p, Initial residual = 0.0112945, Final residual = 8.79041e-05, No Iterations 4
time step continuity errors : sum local = 0.000134743, global = 4.99617e-06, cumulative = -7.32231e-05
smoothSolver:  Solving for omega, Initial residual = 0.000156824, Final residual = 1.38154e-05, No Iterations 3
smoothSolver:  Solving for k, Initial residual = 0.0021386, Final residual = 0.000122183, No Iterations 4
ExecutionTime = 21.99 s  ClockTime = 22 s

forceCoeffs forceCoeffs1 write:
    Cm    = 0.159779
    Cd    = 0.406382
    Cl    = 0.0738055
    Cl(f) = 0.196682
    Cl(r) = -0.122876

Time = 69

smoothSolver:  Solving for Ux, Initial residual = 0.00123937, Final residual = 0.000107473, No Iterations 10
smoothSolver:  Solving for Uy, Initial residual = 0.0262542, Final residual = 0.0025828, No Iterations 9
smoothSolver:  Solving for Uz, Initial residual = 0.0226226, Final residual = 0.00221135, No Iterations 9
GAMG:  Solving for p, Initial residual = 0.0111333, Final residual = 8.66327e-05, No Iterations 4
time step continuity errors : sum local = 0.000132777, global = 5.23543e-06, cumulative = -6.79877e-05
smoothSolver:  Solving for omega, Initial residual = 0.000154517, Final residual = 1.35308e-05, No Iterations 3
smoothSolver:  Solving for k, Initial residual = 0.00208171, Final residual = 0.000118797, No Iterations 4
ExecutionTime = 22.31 s  ClockTime = 23 s

forceCoeffs forceCoeffs1 write:
    Cm    = 0.160136
    Cd    = 0.406916
    Cl    = 0.0736467
    Cl(f) = 0.19696
    Cl(r) = -0.123313

Time = 70

smoothSolver:  Solving for Ux, Initial residual = 0.00121611, Final residual = 0.000104029, No Iterations 10
smoothSolver:  Solving for Uy, Initial residual = 0.0261676, Final residual = 0.00254921, No Iterations 9
smoothSolver:  Solving for Uz, Initial residual = 0.022262, Final residual = 0.00217046, No Iterations 9
GAMG:  Solving for p, Initial residual = 0.0109882, Final residual = 8.52928e-05, No Iterations 4
time step continuity errors : sum local = 0.000130665, global = 5.42079e-06, cumulative = -6.25669e-05
smoothSolver:  Solving for omega, Initial residual = 0.000152953, Final residual = 1.3309e-05, No Iterations 3
smoothSolver:  Solving for k, Initial residual = 0.00202904, Final residual = 0.00011575, No Iterations 4
ExecutionTime = 22.63 s  ClockTime = 23 s

forceCoeffs forceCoeffs1 write:
    Cm    = 0.160028
    Cd    = 0.406986
    Cl    = 0.0733517
    Cl(f) = 0.196704
    Cl(r) = -0.123352

Time = 71

smoothSolver:  Solving for Ux, Initial residual = 0.00119135, Final residual = 0.000100837, No Iterations 10
smoothSolver:  Solving for Uy, Initial residual = 0.025971, Final residual = 0.00249451, No Iterations 9
smoothSolver:  Solving for Uz, Initial residual = 0.0219059, Final residual = 0.00212823, No Iterations 9
GAMG:  Solving for p, Initial residual = 0.0108686, Final residual = 8.37764e-05, No Iterations 4
time step continuity errors : sum local = 0.000128232, global = 5.40188e-06, cumulative = -5.7165e-05
smoothSolver:  Solving for omega, Initial residual = 0.000151153, Final residual = 1.31469e-05, No Iterations 3
smoothSolver:  Solving for k, Initial residual = 0.00197989, Final residual = 0.000112995, No Iterations 4
ExecutionTime = 22.96 s  ClockTime = 23 s

forceCoeffs forceCoeffs1 write:
    Cm    = 0.159509
    Cd    = 0.406696
    Cl    = 0.0729415
    Cl(f) = 0.19598
    Cl(r) = -0.123039

Time = 72

smoothSolver:  Solving for Ux, Initial residual = 0.00116505, Final residual = 9.75331e-05, No Iterations 10
smoothSolver:  Solving for Uy, Initial residual = 0.0256116, Final residual = 0.00242326, No Iterations 9
smoothSolver:  Solving for Uz, Initial residual = 0.0215215, Final residual = 0.00207995, No Iterations 9
GAMG:  Solving for p, Initial residual = 0.0107635, Final residual = 8.18169e-05, No Iterations 4
time step continuity errors : sum local = 0.000125096, global = 4.90475e-06, cumulative = -5.22603e-05
smoothSolver:  Solving for omega, Initial residual = 0.000150355, Final residual = 1.29972e-05, No Iterations 3
smoothSolver:  Solving for k, Initial residual = 0.00193683, Final residual = 0.000110243, No Iterations 4
ExecutionTime = 23.27 s  ClockTime = 24 s

forceCoeffs forceCoeffs1 write:
    Cm    = 0.15874
    Cd    = 0.406144
    Cl    = 0.0727449
    Cl(f) = 0.195113
    Cl(r) = -0.122368

Time = 73

smoothSolver:  Solving for Ux, Initial residual = 0.00113497, Final residual = 9.42518e-05, No Iterations 10
smoothSolver:  Solving for Uy, Initial residual = 0.0251294, Final residual = 0.00235056, No Iterations 9
smoothSolver:  Solving for Uz, Initial residual = 0.0210732, Final residual = 0.00202897, No Iterations 9
GAMG:  Solving for p, Initial residual = 0.0106706, Final residual = 7.96169e-05, No Iterations 4
time step continuity errors : sum local = 0.000121567, global = 3.96987e-06, cumulative = -4.82904e-05
smoothSolver:  Solving for omega, Initial residual = 0.000148847, Final residual = 1.28253e-05, No Iterations 3
smoothSolver:  Solving for k, Initial residual = 0.00189365, Final residual = 0.000107641, No Iterations 4
ExecutionTime = 23.59 s  ClockTime = 24 s

forceCoeffs forceCoeffs1 write:
    Cm    = 0.157913
    Cd    = 0.405551
    Cl    = 0.0727482
    Cl(f) = 0.194288
    Cl(r) = -0.121539

Time = 74

smoothSolver:  Solving for Ux, Initial residual = 0.00110612, Final residual = 9.14085e-05, No Iterations 10
smoothSolver:  Solving for Uy, Initial residual = 0.0246102, Final residual = 0.00228661, No Iterations 9
smoothSolver:  Solving for Uz, Initial residual = 0.0206724, Final residual = 0.0019762, No Iterations 9
GAMG:  Solving for p, Initial residual = 0.0105868, Final residual = 7.83383e-05, No Iterations 4
time step continuity errors : sum local = 0.000119425, global = 3.11806e-06, cumulative = -4.51723e-05
smoothSolver:  Solving for omega, Initial residual = 0.000147061, Final residual = 1.26267e-05, No Iterations 3
bounding omega, min: -38.5791 max: 8.5255e+06 average: 945.897
smoothSolver:  Solving for k, Initial residual = 0.00185275, Final residual = 0.0001052, No Iterations 4
ExecutionTime = 23.92 s  ClockTime = 24 s

forceCoeffs forceCoeffs1 write:
    Cm    = 0.157186
    Cd    = 0.405058
    Cl    = 0.0731856
    Cl(f) = 0.193779
    Cl(r) = -0.120593

Time = 75

smoothSolver:  Solving for Ux, Initial residual = 0.00107528, Final residual = 8.92211e-05, No Iterations 10
smoothSolver:  Solving for Uy, Initial residual = 0.0240188, Final residual = 0.0022362, No Iterations 9
smoothSolver:  Solving for Uz, Initial residual = 0.0202597, Final residual = 0.00192189, No Iterations 9
GAMG:  Solving for p, Initial residual = 0.010513, Final residual = 7.82383e-05, No Iterations 4
time step continuity errors : sum local = 0.000119055, global = 2.06159e-06, cumulative = -4.31107e-05
smoothSolver:  Solving for omega, Initial residual = 0.000145514, Final residual = 1.24237e-05, No Iterations 3
smoothSolver:  Solving for k, Initial residual = 0.00181628, Final residual = 0.000102814, No Iterations 4
ExecutionTime = 24.24 s  ClockTime = 25 s

forceCoeffs forceCoeffs1 write:
    Cm    = 0.1567
    Cd    = 0.40481
    Cl    = 0.0739817
    Cl(f) = 0.193691
    Cl(r) = -0.119709

Time = 76

smoothSolver:  Solving for Ux, Initial residual = 0.00104588, Final residual = 8.75612e-05, No Iterations 10
smoothSolver:  Solving for Uy, Initial residual = 0.0234583, Final residual = 0.00219443, No Iterations 9
smoothSolver:  Solving for Uz, Initial residual = 0.0198827, Final residual = 0.00186804, No Iterations 9
GAMG:  Solving for p, Initial residual = 0.0104154, Final residual = 7.81258e-05, No Iterations 4
time step continuity errors : sum local = 0.000118632, global = 5.73316e-07, cumulative = -4.25374e-05
smoothSolver:  Solving for omega, Initial residual = 0.000144296, Final residual = 1.22579e-05, No Iterations 3
bounding omega, min: -76.2041 max: 8.5255e+06 average: 946.59
smoothSolver:  Solving for k, Initial residual = 0.00178363, Final residual = 0.000100995, No Iterations 4
ExecutionTime = 24.57 s  ClockTime = 25 s

forceCoeffs forceCoeffs1 write:
    Cm    = 0.156455
    Cd    = 0.404797
    Cl    = 0.0752237
    Cl(f) = 0.194067
    Cl(r) = -0.118843

Time = 77

smoothSolver:  Solving for Ux, Initial residual = 0.0010207, Final residual = 8.60678e-05, No Iterations 10
smoothSolver:  Solving for Uy, Initial residual = 0.0230121, Final residual = 0.00216125, No Iterations 9
smoothSolver:  Solving for Uz, Initial residual = 0.0195362, Final residual = 0.00182432, No Iterations 9
GAMG:  Solving for p, Initial residual = 0.010329, Final residual = 7.79405e-05, No Iterations 4
time step continuity errors : sum local = 0.000118086, global = -1.38906e-06, cumulative = -4.39265e-05
smoothSolver:  Solving for omega, Initial residual = 0.000143189, Final residual = 1.21317e-05, No Iterations 3
smoothSolver:  Solving for k, Initial residual = 0.00175919, Final residual = 9.9959e-05, No Iterations 4
ExecutionTime = 24.88 s  ClockTime = 25 s

forceCoeffs forceCoeffs1 write:
    Cm    = 0.156437
    Cd    = 0.405023
    Cl    = 0.0767009
    Cl(f) = 0.194788
    Cl(r) = -0.118087

Time = 78

smoothSolver:  Solving for Ux, Initial residual = 0.00100149, Final residual = 8.43981e-05, No Iterations 10
smoothSolver:  Solving for Uy, Initial residual = 0.0227074, Final residual = 0.00213396, No Iterations 9
smoothSolver:  Solving for Uz, Initial residual = 0.019258, Final residual = 0.00179733, No Iterations 9
GAMG:  Solving for p, Initial residual = 0.0102508, Final residual = 7.80477e-05, No Iterations 4
time step continuity errors : sum local = 0.000117936, global = -3.71166e-06, cumulative = -4.76381e-05
smoothSolver:  Solving for omega, Initial residual = 0.000142528, Final residual = 1.20466e-05, No Iterations 3
smoothSolver:  Solving for k, Initial residual = 0.00173903, Final residual = 9.92837e-05, No Iterations 4
ExecutionTime = 25.2 s  ClockTime = 26 s

forceCoeffs forceCoeffs1 write:
    Cm    = 0.156604
    Cd    = 0.405369
    Cl    = 0.0784224
    Cl(f) = 0.195815
    Cl(r) = -0.117393

Time = 79

smoothSolver:  Solving for Ux, Initial residual = 0.000989672, Final residual = 8.2774e-05, No Iterations 10
smoothSolver:  Solving for Uy, Initial residual = 0.0225039, Final residual = 0.00210389, No Iterations 9
smoothSolver:  Solving for Uz, Initial residual = 0.0190214, Final residual = 0.00177802, No Iterations 9
GAMG:  Solving for p, Initial residual = 0.0101843, Final residual = 7.95388e-05, No Iterations 4
time step continuity errors : sum local = 0.000119837, global = -5.79724e-06, cumulative = -5.34354e-05
smoothSolver:  Solving for omega, Initial residual = 0.000141843, Final residual = 1.19828e-05, No Iterations 3
smoothSolver:  Solving for k, Initial residual = 0.00172181, Final residual = 9.85295e-05, No Iterations 4
ExecutionTime = 25.53 s  ClockTime = 26 s

forceCoeffs forceCoeffs1 write:
    Cm    = 0.156874
    Cd    = 0.405665
    Cl    = 0.0800789
    Cl(f) = 0.196914
    Cl(r) = -0.116835

Time = 80

smoothSolver:  Solving for Ux, Initial residual = 0.000981641, Final residual = 8.11581e-05, No Iterations 10
smoothSolver:  Solving for Uy, Initial residual = 0.0223705, Final residual = 0.00207368, No Iterations 9
smoothSolver:  Solving for Uz, Initial residual = 0.0188276, Final residual = 0.00175976, No Iterations 9
GAMG:  Solving for p, Initial residual = 0.0101093, Final residual = 8.20934e-05, No Iterations 4
time step continuity errors : sum local = 0.000123278, global = -7.61593e-06, cumulative = -6.10513e-05
smoothSolver:  Solving for omega, Initial residual = 0.000141021, Final residual = 1.18446e-05, No Iterations 3
smoothSolver:  Solving for k, Initial residual = 0.00170564, Final residual = 9.74974e-05, No Iterations 4
ExecutionTime = 25.84 s  ClockTime = 26 s

forceCoeffs forceCoeffs1 write:
    Cm    = 0.157185
    Cd    = 0.405726
    Cl    = 0.0815099
    Cl(f) = 0.19794
    Cl(r) = -0.11643

Time = 81

smoothSolver:  Solving for Ux, Initial residual = 0.000974202, Final residual = 7.93356e-05, No Iterations 10
smoothSolver:  Solving for Uy, Initial residual = 0.022288, Final residual = 0.00204412, No Iterations 9
smoothSolver:  Solving for Uz, Initial residual = 0.0186705, Final residual = 0.00173287, No Iterations 9
GAMG:  Solving for p, Initial residual = 0.0100576, Final residual = 8.42485e-05, No Iterations 4
time step continuity errors : sum local = 0.000126105, global = -8.75858e-06, cumulative = -6.98099e-05
smoothSolver:  Solving for omega, Initial residual = 0.000139709, Final residual = 1.16961e-05, No Iterations 3
smoothSolver:  Solving for k, Initial residual = 0.00169125, Final residual = 9.65564e-05, No Iterations 4
ExecutionTime = 26.16 s  ClockTime = 27 s

forceCoeffs forceCoeffs1 write:
    Cm    = 0.15739
    Cd    = 0.405429
    Cl    = 0.0823142
    Cl(f) = 0.198547
    Cl(r) = -0.116233

Time = 82

smoothSolver:  Solving for Ux, Initial residual = 0.000964925, Final residual = 7.75553e-05, No Iterations 10
smoothSolver:  Solving for Uy, Initial residual = 0.0221456, Final residual = 0.00200583, No Iterations 9
smoothSolver:  Solving for Uz, Initial residual = 0.0185403, Final residual = 0.00169551, No Iterations 9
GAMG:  Solving for p, Initial residual = 0.00999972, Final residual = 8.49683e-05, No Iterations 4
time step continuity errors : sum local = 0.000126819, global = -8.90023e-06, cumulative = -7.87101e-05
smoothSolver:  Solving for omega, Initial residual = 0.000138432, Final residual = 1.15655e-05, No Iterations 3
smoothSolver:  Solving for k, Initial residual = 0.00167478, Final residual = 9.57423e-05, No Iterations 4
ExecutionTime = 26.48 s  ClockTime = 27 s

forceCoeffs forceCoeffs1 write:
    Cm    = 0.157483
    Cd    = 0.404914
    Cl    = 0.0824086
    Cl(f) = 0.198688
    Cl(r) = -0.116279

Time = 83

smoothSolver:  Solving for Ux, Initial residual = 0.000950646, Final residual = 7.59376e-05, No Iterations 10
smoothSolver:  Solving for Uy, Initial residual = 0.0218537, Final residual = 0.00194885, No Iterations 9
smoothSolver:  Solving for Uz, Initial residual = 0.0183187, Final residual = 0.00165356, No Iterations 9
GAMG:  Solving for p, Initial residual = 0.00994694, Final residual = 8.27345e-05, No Iterations 4
time step continuity errors : sum local = 0.000123244, global = -7.64032e-06, cumulative = -8.63504e-05
smoothSolver:  Solving for omega, Initial residual = 0.000137053, Final residual = 1.14116e-05, No Iterations 3
smoothSolver:  Solving for k, Initial residual = 0.00165616, Final residual = 9.48594e-05, No Iterations 4
ExecutionTime = 26.8 s  ClockTime = 27 s

forceCoeffs forceCoeffs1 write:
    Cm    = 0.157427
    Cd    = 0.404267
    Cl    = 0.0816289
    Cl(f) = 0.198241
    Cl(r) = -0.116613

Time = 84

smoothSolver:  Solving for Ux, Initial residual = 0.000929793, Final residual = 7.40976e-05, No Iterations 10
smoothSolver:  Solving for Uy, Initial residual = 0.0214047, Final residual = 0.00187838, No Iterations 9
smoothSolver:  Solving for Uz, Initial residual = 0.0179705, Final residual = 0.00160552, No Iterations 9
GAMG:  Solving for p, Initial residual = 0.00987825, Final residual = 7.78086e-05, No Iterations 4
time step continuity errors : sum local = 0.000115838, global = -4.94145e-06, cumulative = -9.12919e-05
smoothSolver:  Solving for omega, Initial residual = 0.000135713, Final residual = 1.1255e-05, No Iterations 3
smoothSolver:  Solving for k, Initial residual = 0.00163833, Final residual = 9.38971e-05, No Iterations 4
ExecutionTime = 27.12 s  ClockTime = 28 s

forceCoeffs forceCoeffs1 write:
    Cm    = 0.157252
    Cd    = 0.403658
    Cl    = 0.0802967
    Cl(f) = 0.197401
    Cl(r) = -0.117104

Time = 85

smoothSolver:  Solving for Ux, Initial residual = 0.00090473, Final residual = 7.20661e-05, No Iterations 10
smoothSolver:  Solving for Uy, Initial residual = 0.0208266, Final residual = 0.00181373, No Iterations 9
smoothSolver:  Solving for Uz, Initial residual = 0.0175275, Final residual = 0.00155829, No Iterations 9
GAMG:  Solving for p, Initial residual = 0.00978203, Final residual = 7.36066e-05, No Iterations 4
time step continuity errors : sum local = 0.000109708, global = -1.67344e-06, cumulative = -9.29653e-05
smoothSolver:  Solving for omega, Initial residual = 0.000134904, Final residual = 1.11212e-05, No Iterations 3
smoothSolver:  Solving for k, Initial residual = 0.00162009, Final residual = 9.28468e-05, No Iterations 4
ExecutionTime = 27.44 s  ClockTime = 28 s

forceCoeffs forceCoeffs1 write:
    Cm    = 0.157003
    Cd    = 0.403135
    Cl    = 0.0785924
    Cl(f) = 0.196299
    Cl(r) = -0.117707

Time = 86

smoothSolver:  Solving for Ux, Initial residual = 0.000879978, Final residual = 7.03145e-05, No Iterations 10
smoothSolver:  Solving for Uy, Initial residual = 0.0202859, Final residual = 0.00176936, No Iterations 9
smoothSolver:  Solving for Uz, Initial residual = 0.0171327, Final residual = 0.0015223, No Iterations 9
GAMG:  Solving for p, Initial residual = 0.00965798, Final residual = 7.23345e-05, No Iterations 4
time step continuity errors : sum local = 0.000108077, global = 5.34102e-07, cumulative = -9.24312e-05
smoothSolver:  Solving for omega, Initial residual = 0.00013398, Final residual = 1.09968e-05, No Iterations 3
smoothSolver:  Solving for k, Initial residual = 0.00160171, Final residual = 9.1799e-05, No Iterations 4
ExecutionTime = 27.76 s  ClockTime = 28 s

forceCoeffs forceCoeffs1 write:
    Cm    = 0.156799
    Cd    = 0.40279
    Cl    = 0.077003
    Cl(f) = 0.1953
    Cl(r) = -0.118297

Time = 87

smoothSolver:  Solving for Ux, Initial residual = 0.000861794, Final residual = 6.8958e-05, No Iterations 10
smoothSolver:  Solving for Uy, Initial residual = 0.0199235, Final residual = 0.00174396, No Iterations 9
smoothSolver:  Solving for Uz, Initial residual = 0.0169104, Final residual = 0.00149705, No Iterations 9
GAMG:  Solving for p, Initial residual = 0.00953406, Final residual = 7.28399e-05, No Iterations 4
time step continuity errors : sum local = 0.000109203, global = 1.70139e-06, cumulative = -9.07298e-05
smoothSolver:  Solving for omega, Initial residual = 0.00013281, Final residual = 1.08992e-05, No Iterations 3
smoothSolver:  Solving for k, Initial residual = 0.00158119, Final residual = 9.07156e-05, No Iterations 4
ExecutionTime = 28.08 s  ClockTime = 29 s

forceCoeffs forceCoeffs1 write:
    Cm    = 0.15674
    Cd    = 0.402655
    Cl    = 0.0756819
    Cl(f) = 0.194581
    Cl(r) = -0.118899

Time = 88

smoothSolver:  Solving for Ux, Initial residual = 0.000850734, Final residual = 6.77376e-05, No Iterations 10
smoothSolver:  Solving for Uy, Initial residual = 0.0197488, Final residual = 0.00171922, No Iterations 9
smoothSolver:  Solving for Uz, Initial residual = 0.0168614, Final residual = 0.00148391, No Iterations 9
GAMG:  Solving for p, Initial residual = 0.0094289, Final residual = 7.32988e-05, No Iterations 4
time step continuity errors : sum local = 0.000110296, global = 2.22974e-06, cumulative = -8.85001e-05
smoothSolver:  Solving for omega, Initial residual = 0.000132631, Final residual = 1.08381e-05, No Iterations 3
bounding omega, min: -220.961 max: 8.5255e+06 average: 948.556
smoothSolver:  Solving for k, Initial residual = 0.00156037, Final residual = 8.96647e-05, No Iterations 4
ExecutionTime = 28.41 s  ClockTime = 29 s

forceCoeffs forceCoeffs1 write:
    Cm    = 0.156833
    Cd    = 0.402635
    Cl    = 0.0749267
    Cl(f) = 0.194297
    Cl(r) = -0.11937

Time = 89

smoothSolver:  Solving for Ux, Initial residual = 0.000840637, Final residual = 6.63986e-05, No Iterations 10
smoothSolver:  Solving for Uy, Initial residual = 0.0196648, Final residual = 0.00169278, No Iterations 9
smoothSolver:  Solving for Uz, Initial residual = 0.0168269, Final residual = 0.00147023, No Iterations 9
GAMG:  Solving for p, Initial residual = 0.00935244, Final residual = 7.24001e-05, No Iterations 4
time step continuity errors : sum local = 0.000109305, global = 2.14641e-06, cumulative = -8.63537e-05
smoothSolver:  Solving for omega, Initial residual = 0.000131574, Final residual = 1.07736e-05, No Iterations 3
bounding omega, min: -420.133 max: 8.5255e+06 average: 948.684
smoothSolver:  Solving for k, Initial residual = 0.00154214, Final residual = 8.86649e-05, No Iterations 4
ExecutionTime = 28.73 s  ClockTime = 29 s

forceCoeffs forceCoeffs1 write:
    Cm    = 0.157016
    Cd    = 0.402622
    Cl    = 0.0747234
    Cl(f) = 0.194378
    Cl(r) = -0.119655

Time = 90

smoothSolver:  Solving for Ux, Initial residual = 0.000828722, Final residual = 8.27317e-05, No Iterations 9
smoothSolver:  Solving for Uy, Initial residual = 0.0195787, Final residual = 0.00166966, No Iterations 9
smoothSolver:  Solving for Uz, Initial residual = 0.0167026, Final residual = 0.00145442, No Iterations 9
GAMG:  Solving for p, Initial residual = 0.00929634, Final residual = 6.95083e-05, No Iterations 4
time step continuity errors : sum local = 0.000105225, global = 1.40756e-06, cumulative = -8.49461e-05
smoothSolver:  Solving for omega, Initial residual = 0.000130885, Final residual = 1.07456e-05, No Iterations 3
smoothSolver:  Solving for k, Initial residual = 0.00152818, Final residual = 8.78104e-05, No Iterations 4
ExecutionTime = 29.05 s  ClockTime = 29 s

forceCoeffs forceCoeffs1 write:
    Cm    = 0.157262
    Cd    = 0.402594
    Cl    = 0.0750753
    Cl(f) = 0.1948
    Cl(r) = -0.119724

Time = 91

smoothSolver:  Solving for Ux, Initial residual = 0.000818741, Final residual = 8.17414e-05, No Iterations 9
smoothSolver:  Solving for Uy, Initial residual = 0.0193703, Final residual = 0.00163951, No Iterations 9
smoothSolver:  Solving for Uz, Initial residual = 0.0164554, Final residual = 0.0014301, No Iterations 9
GAMG:  Solving for p, Initial residual = 0.00922096, Final residual = 6.64356e-05, No Iterations 4
time step continuity errors : sum local = 0.000100753, global = 6.30597e-08, cumulative = -8.48831e-05
smoothSolver:  Solving for omega, Initial residual = 0.000130023, Final residual = 1.06752e-05, No Iterations 3
smoothSolver:  Solving for k, Initial residual = 0.00151675, Final residual = 8.73118e-05, No Iterations 4
ExecutionTime = 29.37 s  ClockTime = 30 s

forceCoeffs forceCoeffs1 write:
    Cm    = 0.157551
    Cd    = 0.40258
    Cl    = 0.0756656
    Cl(f) = 0.195384
    Cl(r) = -0.119718

Time = 92

smoothSolver:  Solving for Ux, Initial residual = 0.000806315, Final residual = 6.3683e-05, No Iterations 10
smoothSolver:  Solving for Uy, Initial residual = 0.0191301, Final residual = 0.00162099, No Iterations 9
smoothSolver:  Solving for Uz, Initial residual = 0.0161296, Final residual = 0.0014076, No Iterations 9
GAMG:  Solving for p, Initial residual = 0.00910776, Final residual = 6.5201e-05, No Iterations 4
time step continuity errors : sum local = 9.89591e-05, global = -1.51657e-06, cumulative = -8.63996e-05
smoothSolver:  Solving for omega, Initial residual = 0.000129559, Final residual = 1.05784e-05, No Iterations 3
bounding omega, min: -18.012 max: 8.5255e+06 average: 947.502
smoothSolver:  Solving for k, Initial residual = 0.00150924, Final residual = 8.69365e-05, No Iterations 4
ExecutionTime = 29.7 s  ClockTime = 30 s

forceCoeffs forceCoeffs1 write:
    Cm    = 0.157841
    Cd    = 0.402674
    Cl    = 0.0762548
    Cl(f) = 0.195969
    Cl(r) = -0.119714

Time = 93

smoothSolver:  Solving for Ux, Initial residual = 0.000791214, Final residual = 7.90433e-05, No Iterations 9
smoothSolver:  Solving for Uy, Initial residual = 0.0188866, Final residual = 0.00161377, No Iterations 9
smoothSolver:  Solving for Uz, Initial residual = 0.0158553, Final residual = 0.0013946, No Iterations 9
GAMG:  Solving for p, Initial residual = 0.00900625, Final residual = 6.63495e-05, No Iterations 4
time step continuity errors : sum local = 0.000100673, global = -2.66893e-06, cumulative = -8.90686e-05
smoothSolver:  Solving for omega, Initial residual = 0.000128543, Final residual = 1.04744e-05, No Iterations 3
smoothSolver:  Solving for k, Initial residual = 0.00150412, Final residual = 8.66782e-05, No Iterations 4
ExecutionTime = 30.02 s  ClockTime = 30 s

forceCoeffs forceCoeffs1 write:
    Cm    = 0.158067
    Cd    = 0.402898
    Cl    = 0.0765038
    Cl(f) = 0.196319
    Cl(r) = -0.119816

Time = 94

smoothSolver:  Solving for Ux, Initial residual = 0.000781955, Final residual = 7.78996e-05, No Iterations 9
smoothSolver:  Solving for Uy, Initial residual = 0.0185536, Final residual = 0.0015937, No Iterations 9
smoothSolver:  Solving for Uz, Initial residual = 0.0155856, Final residual = 0.00137636, No Iterations 9
GAMG:  Solving for p, Initial residual = 0.00890587, Final residual = 6.92376e-05, No Iterations 4
time step continuity errors : sum local = 0.000104912, global = -3.50362e-06, cumulative = -9.25722e-05
smoothSolver:  Solving for omega, Initial residual = 0.000127658, Final residual = 1.03589e-05, No Iterations 3
bounding omega, min: -141.057 max: 8.5255e+06 average: 947.034
smoothSolver:  Solving for k, Initial residual = 0.00150153, Final residual = 8.64323e-05, No Iterations 4
ExecutionTime = 30.33 s  ClockTime = 31 s

forceCoeffs forceCoeffs1 write:
    Cm    = 0.158193
    Cd    = 0.403332
    Cl    = 0.0762525
    Cl(f) = 0.196319
    Cl(r) = -0.120067

Time = 95

smoothSolver:  Solving for Ux, Initial residual = 0.000774769, Final residual = 7.70225e-05, No Iterations 9
smoothSolver:  Solving for Uy, Initial residual = 0.0182848, Final residual = 0.00157092, No Iterations 9
smoothSolver:  Solving for Uz, Initial residual = 0.015441, Final residual = 0.0013633, No Iterations 9
GAMG:  Solving for p, Initial residual = 0.00883394, Final residual = 7.09592e-05, No Iterations 4
time step continuity errors : sum local = 0.000107318, global = -3.63212e-06, cumulative = -9.62043e-05
smoothSolver:  Solving for omega, Initial residual = 0.000126411, Final residual = 1.02594e-05, No Iterations 3
smoothSolver:  Solving for k, Initial residual = 0.00149882, Final residual = 8.6148e-05, No Iterations 4
ExecutionTime = 30.66 s  ClockTime = 31 s

forceCoeffs forceCoeffs1 write:
    Cm    = 0.158228
    Cd    = 0.403893
    Cl    = 0.0756762
    Cl(f) = 0.196066
    Cl(r) = -0.12039

Time = 96

smoothSolver:  Solving for Ux, Initial residual = 0.000766475, Final residual = 7.65182e-05, No Iterations 9
smoothSolver:  Solving for Uy, Initial residual = 0.0180305, Final residual = 0.00154453, No Iterations 9
smoothSolver:  Solving for Uz, Initial residual = 0.0153305, Final residual = 0.00135529, No Iterations 9
GAMG:  Solving for p, Initial residual = 0.00874234, Final residual = 7.03593e-05, No Iterations 4
time step continuity errors : sum local = 0.000106169, global = -3.20204e-06, cumulative = -9.94063e-05
smoothSolver:  Solving for omega, Initial residual = 0.000125026, Final residual = 1.01672e-05, No Iterations 3
smoothSolver:  Solving for k, Initial residual = 0.00149774, Final residual = 8.59286e-05, No Iterations 4
ExecutionTime = 30.99 s  ClockTime = 31 s

forceCoeffs forceCoeffs1 write:
    Cm    = 0.158158
    Cd    = 0.404287
    Cl    = 0.0751655
    Cl(f) = 0.19574
    Cl(r) = -0.120575

Time = 97

smoothSolver:  Solving for Ux, Initial residual = 0.00075879, Final residual = 6.06759e-05, No Iterations 10
smoothSolver:  Solving for Uy, Initial residual = 0.0178008, Final residual = 0.00151525, No Iterations 9
smoothSolver:  Solving for Uz, Initial residual = 0.0151992, Final residual = 0.00134597, No Iterations 9
GAMG:  Solving for p, Initial residual = 0.00865347, Final residual = 6.88727e-05, No Iterations 4
time step continuity errors : sum local = 0.000103701, global = -2.44012e-06, cumulative = -0.000101846
smoothSolver:  Solving for omega, Initial residual = 0.000124753, Final residual = 1.01274e-05, No Iterations 3
smoothSolver:  Solving for k, Initial residual = 0.00150486, Final residual = 8.612e-05, No Iterations 4
ExecutionTime = 31.32 s  ClockTime = 32 s

forceCoeffs forceCoeffs1 write:
    Cm    = 0.158055
    Cd    = 0.404484
    Cl    = 0.0748684
    Cl(f) = 0.195489
    Cl(r) = -0.120621

Time = 98

smoothSolver:  Solving for Ux, Initial residual = 0.00075148, Final residual = 6.05462e-05, No Iterations 10
smoothSolver:  Solving for Uy, Initial residual = 0.0176235, Final residual = 0.00149443, No Iterations 9
smoothSolver:  Solving for Uz, Initial residual = 0.0151082, Final residual = 0.0013426, No Iterations 9
GAMG:  Solving for p, Initial residual = 0.00859558, Final residual = 6.78877e-05, No Iterations 4
time step continuity errors : sum local = 0.000102043, global = -1.34477e-06, cumulative = -0.000103191
smoothSolver:  Solving for omega, Initial residual = 0.000124403, Final residual = 1.01502e-05, No Iterations 3
smoothSolver:  Solving for k, Initial residual = 0.00151162, Final residual = 8.65752e-05, No Iterations 4
ExecutionTime = 31.64 s  ClockTime = 32 s

forceCoeffs forceCoeffs1 write:
    Cm    = 0.157911
    Cd    = 0.404415
    Cl    = 0.0747291
    Cl(f) = 0.195276
    Cl(r) = -0.120547

Time = 99

smoothSolver:  Solving for Ux, Initial residual = 0.000746466, Final residual = 6.05149e-05, No Iterations 10
smoothSolver:  Solving for Uy, Initial residual = 0.0174328, Final residual = 0.00147468, No Iterations 9
smoothSolver:  Solving for Uz, Initial residual = 0.015021, Final residual = 0.00133505, No Iterations 9
GAMG:  Solving for p, Initial residual = 0.00857028, Final residual = 6.71649e-05, No Iterations 4
time step continuity errors : sum local = 0.000100865, global = 1.60443e-07, cumulative = -0.000103031
smoothSolver:  Solving for omega, Initial residual = 0.000125233, Final residual = 1.01978e-05, No Iterations 3
smoothSolver:  Solving for k, Initial residual = 0.00151912, Final residual = 8.69668e-05, No Iterations 4
ExecutionTime = 31.97 s  ClockTime = 32 s

forceCoeffs forceCoeffs1 write:
    Cm    = 0.157777
    Cd    = 0.404181
    Cl    = 0.074597
    Cl(f) = 0.195076
    Cl(r) = -0.120479

Time = 100

smoothSolver:  Solving for Ux, Initial residual = 0.000744785, Final residual = 6.03185e-05, No Iterations 10
smoothSolver:  Solving for Uy, Initial residual = 0.0172551, Final residual = 0.00146387, No Iterations 9
smoothSolver:  Solving for Uz, Initial residual = 0.0149611, Final residual = 0.00132534, No Iterations 9
GAMG:  Solving for p, Initial residual = 0.00855871, Final residual = 6.64583e-05, No Iterations 4
time step continuity errors : sum local = 9.98034e-05, global = 1.61042e-06, cumulative = -0.00010142
smoothSolver:  Solving for omega, Initial residual = 0.000126148, Final residual = 1.02392e-05, No Iterations 3
smoothSolver:  Solving for k, Initial residual = 0.00152472, Final residual = 8.70955e-05, No Iterations 4
ExecutionTime = 32.3 s  ClockTime = 33 s

forceCoeffs forceCoeffs1 write:
    Cm    = 0.157701
    Cd    = 0.40388
    Cl    = 0.0745185
    Cl(f) = 0.194961
    Cl(r) = -0.120442

End

Finalising parallel run
