Cleaning /rds/user/hpcbras1/hpc-work/csd3/cclake-ib-gcc9-ompi3-ucx/openfoam/Openfoam_Mbike_csd3_cclake_ib_gcc9_ompi3_ucx_112_56 case
Running surfaceFeatureExtract on /rds/user/hpcbras1/hpc-work/csd3/cclake-ib-gcc9-ompi3-ucx/openfoam/Openfoam_Mbike_csd3_cclake_ib_gcc9_ompi3_ucx_112_56
Running blockMesh on /rds/user/hpcbras1/hpc-work/csd3/cclake-ib-gcc9-ompi3-ucx/openfoam/Openfoam_Mbike_csd3_cclake_ib_gcc9_ompi3_ucx_112_56
Running decomposePar on /rds/user/hpcbras1/hpc-work/csd3/cclake-ib-gcc9-ompi3-ucx/openfoam/Openfoam_Mbike_csd3_cclake_ib_gcc9_ompi3_ucx_112_56
Running snappyHexMesh in parallel on /rds/user/hpcbras1/hpc-work/csd3/cclake-ib-gcc9-ompi3-ucx/openfoam/Openfoam_Mbike_csd3_cclake_ib_gcc9_ompi3_ucx_112_56 using 112 processes
/*---------------------------------------------------------------------------*\
  =========                 |
  \\      /  F ield         | OpenFOAM: The Open Source CFD Toolbox
   \\    /   O peration     | Website:  https://openfoam.org
    \\  /    A nd           | Version:  7
     \\/     M anipulation  |
\*---------------------------------------------------------------------------*/
Build  : 7
Exec   : /home/hpcbras1/spack/opt/spack/linux-scientific7-skylake_avx512/gcc-9.1.0/openfoam-org-7-dahapwszurcwmfsxldhpukzh3tv4odmy/platforms/linux64GccDPInt32-spack/bin/simpleFoam -parallel
Date   : Oct 14 2020
Time   : 15:53:23
Host   : "cpu-p-282"
PID    : 115146
I/O    : uncollated
Case   : /rds/user/hpcbras1/hpc-work/csd3/cclake-ib-gcc9-ompi3-ucx/openfoam/Openfoam_Mbike_csd3_cclake_ib_gcc9_ompi3_ucx_112_56
nProcs : 112
Slaves : 
111
(
"cpu-p-282.115147"
"cpu-p-282.115148"
"cpu-p-282.115149"
"cpu-p-282.115150"
"cpu-p-282.115151"
"cpu-p-282.115152"
"cpu-p-282.115153"
"cpu-p-282.115154"
"cpu-p-282.115155"
"cpu-p-282.115156"
"cpu-p-282.115157"
"cpu-p-282.115158"
"cpu-p-282.115159"
"cpu-p-282.115160"
"cpu-p-282.115161"
"cpu-p-282.115162"
"cpu-p-282.115163"
"cpu-p-282.115164"
"cpu-p-282.115165"
"cpu-p-282.115166"
"cpu-p-282.115167"
"cpu-p-282.115168"
"cpu-p-282.115169"
"cpu-p-282.115170"
"cpu-p-282.115171"
"cpu-p-282.115172"
"cpu-p-282.115173"
"cpu-p-282.115174"
"cpu-p-282.115175"
"cpu-p-282.115176"
"cpu-p-282.115177"
"cpu-p-282.115178"
"cpu-p-282.115179"
"cpu-p-282.115180"
"cpu-p-282.115181"
"cpu-p-282.115182"
"cpu-p-282.115183"
"cpu-p-282.115184"
"cpu-p-282.115185"
"cpu-p-282.115186"
"cpu-p-282.115187"
"cpu-p-282.115188"
"cpu-p-282.115189"
"cpu-p-282.115190"
"cpu-p-282.115191"
"cpu-p-282.115192"
"cpu-p-282.115193"
"cpu-p-282.115194"
"cpu-p-282.115195"
"cpu-p-282.115196"
"cpu-p-282.115197"
"cpu-p-282.115198"
"cpu-p-282.115199"
"cpu-p-282.115200"
"cpu-p-282.115201"
"cpu-p-283.81599"
"cpu-p-283.81600"
"cpu-p-283.81601"
"cpu-p-283.81602"
"cpu-p-283.81603"
"cpu-p-283.81604"
"cpu-p-283.81605"
"cpu-p-283.81606"
"cpu-p-283.81607"
"cpu-p-283.81608"
"cpu-p-283.81609"
"cpu-p-283.81610"
"cpu-p-283.81611"
"cpu-p-283.81612"
"cpu-p-283.81613"
"cpu-p-283.81614"
"cpu-p-283.81615"
"cpu-p-283.81616"
"cpu-p-283.81617"
"cpu-p-283.81618"
"cpu-p-283.81619"
"cpu-p-283.81620"
"cpu-p-283.81621"
"cpu-p-283.81622"
"cpu-p-283.81623"
"cpu-p-283.81624"
"cpu-p-283.81625"
"cpu-p-283.81626"
"cpu-p-283.81627"
"cpu-p-283.81628"
"cpu-p-283.81629"
"cpu-p-283.81630"
"cpu-p-283.81631"
"cpu-p-283.81632"
"cpu-p-283.81633"
"cpu-p-283.81634"
"cpu-p-283.81635"
"cpu-p-283.81636"
"cpu-p-283.81637"
"cpu-p-283.81638"
"cpu-p-283.81639"
"cpu-p-283.81640"
"cpu-p-283.81641"
"cpu-p-283.81642"
"cpu-p-283.81643"
"cpu-p-283.81644"
"cpu-p-283.81645"
"cpu-p-283.81646"
"cpu-p-283.81647"
"cpu-p-283.81648"
"cpu-p-283.81649"
"cpu-p-283.81650"
"cpu-p-283.81651"
"cpu-p-283.81652"
"cpu-p-283.81653"
"cpu-p-283.81654"
)

Pstream initialized with:
    floatTransfer      : 0
    nProcsSimpleSum    : 0
    commsType          : nonBlocking
    polling iterations : 0
sigFpe : Enabling floating point exception trapping (FOAM_SIGFPE).
fileModificationChecking : Monitoring run-time modified files using timeStampMaster (fileModificationSkew 10)
allowSystemOperations : Allowing user-supplied system call operations

// * * * * * * * * * * * * * * * * * * * * * * * * * * * * * * * * * * * * * //
Create time

Create mesh for time = 0


SIMPLE: No convergence criteria found

Reading field p

Reading field U

Reading/calculating face flux field phi

Selecting incompressible transport model Newtonian
Selecting turbulence model type RAS
Selecting RAS turbulence model kOmegaSST
Selecting patchDistMethod meshWave
RAS
{
    RASModel        kOmegaSST;
    turbulence      on;
    printCoeffs     on;
    alphaK1         0.85;
    alphaK2         1;
    alphaOmega1     0.5;
    alphaOmega2     0.856;
    gamma1          0.555556;
    gamma2          0.44;
    beta1           0.075;
    beta2           0.0828;
    betaStar        0.09;
    a1              0.31;
    b1              1;
    c1              10;
    F3              false;
}

No MRF models present

No finite volume options present

Starting time loop

Reading surface description:
    yNormal

forces forceCoeffs1:
    Not including porosity effects
forceCoeffs forceCoeffs1:
    Not including porosity effects
Time = 1

smoothSolver:  Solving for Ux, Initial residual = 1, Final residual = 0.0835374, No Iterations 14
smoothSolver:  Solving for Uy, Initial residual = 1, Final residual = 0.0924367, No Iterations 12
smoothSolver:  Solving for Uz, Initial residual = 1, Final residual = 0.0853284, No Iterations 13
GAMG:  Solving for p, Initial residual = 1, Final residual = 0.0048299, No Iterations 7
time step continuity errors : sum local = 0.000341587, global = 4.9514e-06, cumulative = 4.9514e-06
smoothSolver:  Solving for omega, Initial residual = 0.0120783, Final residual = 0.00113463, No Iterations 2
bounding omega, min: -2.56003e+06 max: 8.89187e+07 average: 553.747
smoothSolver:  Solving for k, Initial residual = 1, Final residual = 0.0632969, No Iterations 4
ExecutionTime = 0.79 s  ClockTime = 1 s

forceCoeffs forceCoeffs1 write:
    Cm    = 12.3075
    Cd    = 26.631
    Cl    = -1.80363
    Cl(f) = 11.4057
    Cl(r) = -13.2093

Time = 2

smoothSolver:  Solving for Ux, Initial residual = 0.107256, Final residual = 0.0103481, No Iterations 11
smoothSolver:  Solving for Uy, Initial residual = 0.515711, Final residual = 0.0452744, No Iterations 11
smoothSolver:  Solving for Uz, Initial residual = 0.39128, Final residual = 0.0327564, No Iterations 11
GAMG:  Solving for p, Initial residual = 0.232946, Final residual = 0.00101957, No Iterations 5
time step continuity errors : sum local = 0.0045101, global = -5.05687e-06, cumulative = -1.05471e-07
smoothSolver:  Solving for omega, Initial residual = 1, Final residual = 0.0885969, No Iterations 3
smoothSolver:  Solving for k, Initial residual = 0.992049, Final residual = 3.1686e-10, No Iterations 1
ExecutionTime = 0.95 s  ClockTime = 1 s

forceCoeffs forceCoeffs1 write:
    Cm    = 4.70529
    Cd    = 10.7996
    Cl    = -0.39292
    Cl(f) = 4.50883
    Cl(r) = -4.90175

Time = 3

smoothSolver:  Solving for Ux, Initial residual = 0.133203, Final residual = 0.0103598, No Iterations 5
smoothSolver:  Solving for Uy, Initial residual = 0.566257, Final residual = 0.0557907, No Iterations 5
smoothSolver:  Solving for Uz, Initial residual = 0.599871, Final residual = 0.0436099, No Iterations 5
GAMG:  Solving for p, Initial residual = 0.141071, Final residual = 0.000870741, No Iterations 5
time step continuity errors : sum local = 0.00314185, global = 4.00572e-06, cumulative = 3.90025e-06
smoothSolver:  Solving for omega, Initial residual = 0.538467, Final residual = 3.02924e-15, No Iterations 1
bounding omega, min: -5.57527e+10 max: 7.82403e+17 average: 1.75429e+12
smoothSolver:  Solving for k, Initial residual = 0.122539, Final residual = 4.10604e-10, No Iterations 1
ExecutionTime = 1.09 s  ClockTime = 1 s

forceCoeffs forceCoeffs1 write:
    Cm    = 3.16923
    Cd    = 7.23091
    Cl    = -0.807618
    Cl(f) = 2.76542
    Cl(r) = -3.57304

Time = 4

smoothSolver:  Solving for Ux, Initial residual = 0.0566993, Final residual = 0.00443042, No Iterations 6
smoothSolver:  Solving for Uy, Initial residual = 0.460257, Final residual = 0.0364997, No Iterations 6
smoothSolver:  Solving for Uz, Initial residual = 0.436836, Final residual = 0.0420871, No Iterations 5
GAMG:  Solving for p, Initial residual = 0.0821116, Final residual = 0.000393224, No Iterations 5
time step continuity errors : sum local = 0.00159557, global = 4.87719e-06, cumulative = 8.77744e-06
smoothSolver:  Solving for omega, Initial residual = 0.538467, Final residual = 9.38389e-15, No Iterations 1
bounding omega, min: -3.64981e+07 max: 2.34721e+17 average: 5.26315e+11
smoothSolver:  Solving for k, Initial residual = 0.0286778, Final residual = 1.09184e-09, No Iterations 1
ExecutionTime = 1.23 s  ClockTime = 1 s

forceCoeffs forceCoeffs1 write:
    Cm    = 1.35712
    Cd    = 3.36823
    Cl    = -0.658675
    Cl(f) = 1.02779
    Cl(r) = -1.68646

Time = 5

smoothSolver:  Solving for Ux, Initial residual = 0.0252331, Final residual = 0.00216173, No Iterations 7
smoothSolver:  Solving for Uy, Initial residual = 0.358975, Final residual = 0.0276626, No Iterations 7
smoothSolver:  Solving for Uz, Initial residual = 0.305798, Final residual = 0.0294406, No Iterations 6
GAMG:  Solving for p, Initial residual = 0.0609284, Final residual = 0.000543518, No Iterations 4
time step continuity errors : sum local = 0.00255285, global = 1.74928e-06, cumulative = 1.05267e-05
smoothSolver:  Solving for omega, Initial residual = 0.538467, Final residual = 3.44493e-14, No Iterations 1
bounding omega, min: -2.86355e+06 max: 7.04163e+16 average: 1.57895e+11
smoothSolver:  Solving for k, Initial residual = 0.00740327, Final residual = 3.2025e-09, No Iterations 1
ExecutionTime = 1.38 s  ClockTime = 1 s

forceCoeffs forceCoeffs1 write:
    Cm    = 0.698475
    Cd    = 1.80385
    Cl    = -0.363791
    Cl(f) = 0.516579
    Cl(r) = -0.88037

Time = 6

smoothSolver:  Solving for Ux, Initial residual = 0.0180801, Final residual = 0.00158179, No Iterations 7
smoothSolver:  Solving for Uy, Initial residual = 0.297366, Final residual = 0.0247997, No Iterations 7
smoothSolver:  Solving for Uz, Initial residual = 0.254329, Final residual = 0.0248874, No Iterations 6
GAMG:  Solving for p, Initial residual = 0.0520893, Final residual = 0.000410975, No Iterations 4
time step continuity errors : sum local = 0.00190783, global = 8.49188e-06, cumulative = 1.90186e-05
smoothSolver:  Solving for omega, Initial residual = 0.538467, Final residual = 1.1822e-13, No Iterations 1
bounding omega, min: -430703 max: 2.11249e+16 average: 4.73686e+10
smoothSolver:  Solving for k, Initial residual = 0.00198532, Final residual = 9.43797e-09, No Iterations 1
ExecutionTime = 1.51 s  ClockTime = 2 s

forceCoeffs forceCoeffs1 write:
    Cm    = 0.437338
    Cd    = 1.11957
    Cl    = -0.157086
    Cl(f) = 0.358795
    Cl(r) = -0.515881

Time = 7

smoothSolver:  Solving for Ux, Initial residual = 0.0133659, Final residual = 0.00127643, No Iterations 7
smoothSolver:  Solving for Uy, Initial residual = 0.253033, Final residual = 0.0229944, No Iterations 7
smoothSolver:  Solving for Uz, Initial residual = 0.22242, Final residual = 0.0180757, No Iterations 7
GAMG:  Solving for p, Initial residual = 0.0468988, Final residual = 0.000340365, No Iterations 4
time step continuity errors : sum local = 0.00155487, global = 1.85371e-05, cumulative = 3.75557e-05
smoothSolver:  Solving for omega, Initial residual = 0.538467, Final residual = 4.52513e-13, No Iterations 1
bounding omega, min: -787905 max: 6.33746e+15 average: 1.42106e+10
smoothSolver:  Solving for k, Initial residual = 0.000549574, Final residual = 2.92107e-08, No Iterations 1
ExecutionTime = 1.65 s  ClockTime = 2 s

forceCoeffs forceCoeffs1 write:
    Cm    = 0.340551
    Cd    = 0.80973
    Cl    = -0.0765304
    Cl(f) = 0.302286
    Cl(r) = -0.378816

Time = 8

smoothSolver:  Solving for Ux, Initial residual = 0.0113128, Final residual = 0.00111627, No Iterations 7
smoothSolver:  Solving for Uy, Initial residual = 0.223112, Final residual = 0.0208919, No Iterations 7
smoothSolver:  Solving for Uz, Initial residual = 0.203936, Final residual = 0.0174026, No Iterations 7
GAMG:  Solving for p, Initial residual = 0.0438963, Final residual = 0.000304185, No Iterations 4
time step continuity errors : sum local = 0.00134319, global = 1.62278e-05, cumulative = 5.37835e-05
smoothSolver:  Solving for omega, Initial residual = 0.538467, Final residual = 1.712e-12, No Iterations 1
bounding omega, min: -242416 max: 1.90124e+15 average: 4.26318e+09
smoothSolver:  Solving for k, Initial residual = 0.000155276, Final residual = 9.184e-08, No Iterations 1
ExecutionTime = 1.85 s  ClockTime = 2 s

forceCoeffs forceCoeffs1 write:
    Cm    = 0.299356
    Cd    = 0.673323
    Cl    = -0.0402651
    Cl(f) = 0.279223
    Cl(r) = -0.319488

Time = 9

smoothSolver:  Solving for Ux, Initial residual = 0.00952575, Final residual = 0.000772947, No Iterations 8
smoothSolver:  Solving for Uy, Initial residual = 0.205944, Final residual = 0.0198439, No Iterations 7
smoothSolver:  Solving for Uz, Initial residual = 0.19479, Final residual = 0.0174943, No Iterations 7
GAMG:  Solving for p, Initial residual = 0.0419702, Final residual = 0.000286646, No Iterations 4
time step continuity errors : sum local = 0.00122565, global = 1.30848e-05, cumulative = 6.68683e-05
smoothSolver:  Solving for omega, Initial residual = 0.538467, Final residual = 6.05959e-12, No Iterations 1
bounding omega, min: -514767 max: 5.70372e+14 average: 1.27896e+09
smoothSolver:  Solving for k, Initial residual = 4.5058e-05, Final residual = 2.9508e-07, No Iterations 1
ExecutionTime = 2 s  ClockTime = 2 s

forceCoeffs forceCoeffs1 write:
    Cm    = 0.278639
    Cd    = 0.598305
    Cl    = -0.0365347
    Cl(f) = 0.260372
    Cl(r) = -0.296906

Time = 10

smoothSolver:  Solving for Ux, Initial residual = 0.00851369, Final residual = 0.000701918, No Iterations 8
smoothSolver:  Solving for Uy, Initial residual = 0.189723, Final residual = 0.0186599, No Iterations 7
smoothSolver:  Solving for Uz, Initial residual = 0.190293, Final residual = 0.0177702, No Iterations 7
GAMG:  Solving for p, Initial residual = 0.0406642, Final residual = 0.000281853, No Iterations 4
time step continuity errors : sum local = 0.00115947, global = 8.96468e-06, cumulative = 7.5833e-05
smoothSolver:  Solving for omega, Initial residual = 0.538467, Final residual = 2.03e-11, No Iterations 1
bounding omega, min: -2.73385e+06 max: 1.71112e+14 average: 3.83689e+08
smoothSolver:  Solving for k, Initial residual = 1.50786e-05, Final residual = 9.40891e-07, No Iterations 1
ExecutionTime = 2.21 s  ClockTime = 2 s

forceCoeffs forceCoeffs1 write:
    Cm    = 0.263519
    Cd    = 0.557506
    Cl    = -0.0363786
    Cl(f) = 0.24533
    Cl(r) = -0.281708

Time = 11

smoothSolver:  Solving for Ux, Initial residual = 0.00764878, Final residual = 0.000651509, No Iterations 8
smoothSolver:  Solving for Uy, Initial residual = 0.169934, Final residual = 0.0134774, No Iterations 8
smoothSolver:  Solving for Uz, Initial residual = 0.183251, Final residual = 0.0180222, No Iterations 7
GAMG:  Solving for p, Initial residual = 0.0398211, Final residual = 0.000278221, No Iterations 4
time step continuity errors : sum local = 0.00109926, global = 6.00483e-06, cumulative = 8.18378e-05
smoothSolver:  Solving for omega, Initial residual = 0.538467, Final residual = 6.83019e-11, No Iterations 1
bounding omega, min: -38859.7 max: 5.13335e+13 average: 1.15109e+08
smoothSolver:  Solving for k, Initial residual = 1.13794e-05, Final residual = 6.71788e-07, No Iterations 3
bounding k, min: -1.28786e-05 max: 199.321 average: 0.495646
ExecutionTime = 2.38 s  ClockTime = 2 s

forceCoeffs forceCoeffs1 write:
    Cm    = 0.246943
    Cd    = 0.52696
    Cl    = -0.0415878
    Cl(f) = 0.226149
    Cl(r) = -0.267737

Time = 12

smoothSolver:  Solving for Ux, Initial residual = 0.00713467, Final residual = 0.000623739, No Iterations 8
smoothSolver:  Solving for Uy, Initial residual = 0.157593, Final residual = 0.0127962, No Iterations 8
smoothSolver:  Solving for Uz, Initial residual = 0.174092, Final residual = 0.0137465, No Iterations 8
GAMG:  Solving for p, Initial residual = 0.0390131, Final residual = 0.000273572, No Iterations 4
time step continuity errors : sum local = 0.00103652, global = 3.02399e-06, cumulative = 8.48618e-05
smoothSolver:  Solving for omega, Initial residual = 0.538467, Final residual = 2.24333e-10, No Iterations 1
bounding omega, min: -13792.6 max: 1.54e+13 average: 3.45341e+07
smoothSolver:  Solving for k, Initial residual = 2.5146e-05, Final residual = 2.20453e-06, No Iterations 3
bounding k, min: -2.48654e-05 max: 289.031 average: 0.513523
ExecutionTime = 2.53 s  ClockTime = 3 s

forceCoeffs forceCoeffs1 write:
    Cm    = 0.232618
    Cd    = 0.501811
    Cl    = -0.0398889
    Cl(f) = 0.212674
    Cl(r) = -0.252563

Time = 13

smoothSolver:  Solving for Ux, Initial residual = 0.00665677, Final residual = 0.000605008, No Iterations 8
smoothSolver:  Solving for Uy, Initial residual = 0.144954, Final residual = 0.0122459, No Iterations 8
smoothSolver:  Solving for Uz, Initial residual = 0.162917, Final residual = 0.0132693, No Iterations 8
GAMG:  Solving for p, Initial residual = 0.0381805, Final residual = 0.000260257, No Iterations 4
time step continuity errors : sum local = 0.000948104, global = 1.14799e-06, cumulative = 8.60098e-05
smoothSolver:  Solving for omega, Initial residual = 0.538467, Final residual = 7.29547e-10, No Iterations 1
bounding omega, min: -38489.4 max: 4.62001e+12 average: 1.03615e+07
smoothSolver:  Solving for k, Initial residual = 7.69171e-05, Final residual = 7.21992e-06, No Iterations 3
bounding k, min: -1.35052e-05 max: 322.426 average: 0.526873
ExecutionTime = 2.69 s  ClockTime = 3 s

forceCoeffs forceCoeffs1 write:
    Cm    = 0.21717
    Cd    = 0.476939
    Cl    = -0.024921
    Cl(f) = 0.204709
    Cl(r) = -0.22963

Time = 14

smoothSolver:  Solving for Ux, Initial residual = 0.00625334, Final residual = 0.000592969, No Iterations 8
smoothSolver:  Solving for Uy, Initial residual = 0.134758, Final residual = 0.0117679, No Iterations 8
smoothSolver:  Solving for Uz, Initial residual = 0.150915, Final residual = 0.0127856, No Iterations 8
GAMG:  Solving for p, Initial residual = 0.0377118, Final residual = 0.000247683, No Iterations 4
time step continuity errors : sum local = 0.000867215, global = 7.76597e-07, cumulative = 8.67864e-05
smoothSolver:  Solving for omega, Initial residual = 0.538467, Final residual = 2.33358e-09, No Iterations 1
bounding omega, min: -2672.23 max: 1.386e+12 average: 3.10954e+06
smoothSolver:  Solving for k, Initial residual = 0.0002487, Final residual = 2.3888e-05, No Iterations 3
bounding k, min: -4.76622e-05 max: 284.749 average: 0.540503
ExecutionTime = 2.83 s  ClockTime = 3 s

forceCoeffs forceCoeffs1 write:
    Cm    = 0.205944
    Cd    = 0.465077
    Cl    = -0.0125497
    Cl(f) = 0.199669
    Cl(r) = -0.212219

Time = 15

smoothSolver:  Solving for Ux, Initial residual = 0.00597676, Final residual = 0.000590509, No Iterations 8
smoothSolver:  Solving for Uy, Initial residual = 0.12457, Final residual = 0.0113376, No Iterations 8
smoothSolver:  Solving for Uz, Initial residual = 0.141054, Final residual = 0.0123738, No Iterations 8
GAMG:  Solving for p, Initial residual = 0.0370678, Final residual = 0.000243978, No Iterations 4
time step continuity errors : sum local = 0.000815439, global = 1.36565e-06, cumulative = 8.8152e-05
smoothSolver:  Solving for omega, Initial residual = 0.538466, Final residual = 7.5194e-09, No Iterations 1
bounding omega, min: -1.24126e+06 max: 4.15801e+11 average: 933869
smoothSolver:  Solving for k, Initial residual = 0.000773545, Final residual = 7.44866e-05, No Iterations 3
bounding k, min: -4.87644e-05 max: 255.8 average: 0.551091
ExecutionTime = 2.98 s  ClockTime = 3 s

forceCoeffs forceCoeffs1 write:
    Cm    = 0.194665
    Cd    = 0.454315
    Cl    = 0.00346798
    Cl(f) = 0.196399
    Cl(r) = -0.192931

Time = 16

smoothSolver:  Solving for Ux, Initial residual = 0.00575941, Final residual = 0.000463215, No Iterations 9
smoothSolver:  Solving for Uy, Initial residual = 0.115339, Final residual = 0.0108927, No Iterations 8
smoothSolver:  Solving for Uz, Initial residual = 0.133126, Final residual = 0.0121502, No Iterations 8
GAMG:  Solving for p, Initial residual = 0.0367189, Final residual = 0.00024857, No Iterations 4
time step continuity errors : sum local = 0.000792564, global = 2.70564e-06, cumulative = 9.08577e-05
smoothSolver:  Solving for omega, Initial residual = 0.538465, Final residual = 2.55862e-08, No Iterations 1
bounding omega, min: -2996.3 max: 1.2474e+11 average: 281107
smoothSolver:  Solving for k, Initial residual = 0.00200497, Final residual = 0.000195822, No Iterations 3
bounding k, min: -2.84758e-05 max: 346.027 average: 0.561583
ExecutionTime = 3.12 s  ClockTime = 3 s

forceCoeffs forceCoeffs1 write:
    Cm    = 0.186056
    Cd    = 0.45091
    Cl    = 0.0158472
    Cl(f) = 0.19398
    Cl(r) = -0.178133

Time = 17

smoothSolver:  Solving for Ux, Initial residual = 0.00559536, Final residual = 0.000461036, No Iterations 9
smoothSolver:  Solving for Uy, Initial residual = 0.107314, Final residual = 0.010529, No Iterations 8
smoothSolver:  Solving for Uz, Initial residual = 0.12719, Final residual = 0.0120183, No Iterations 8
GAMG:  Solving for p, Initial residual = 0.0366722, Final residual = 0.000262548, No Iterations 4
time step continuity errors : sum local = 0.000796769, global = 5.22875e-06, cumulative = 9.60864e-05
smoothSolver:  Solving for omega, Initial residual = 0.538462, Final residual = 8.92451e-08, No Iterations 1
bounding omega, min: -81578.2 max: 3.74221e+10 average: 85228.8
smoothSolver:  Solving for k, Initial residual = 0.00371574, Final residual = 0.000371267, No Iterations 3
bounding k, min: -5.31864e-05 max: 283.875 average: 0.570379
ExecutionTime = 3.27 s  ClockTime = 3 s

forceCoeffs forceCoeffs1 write:
    Cm    = 0.177381
    Cd    = 0.440114
    Cl    = 0.0255448
    Cl(f) = 0.190154
    Cl(r) = -0.164609

Time = 18

smoothSolver:  Solving for Ux, Initial residual = 0.00542326, Final residual = 0.000458671, No Iterations 9
smoothSolver:  Solving for Uy, Initial residual = 0.101548, Final residual = 0.00810579, No Iterations 9
smoothSolver:  Solving for Uz, Initial residual = 0.122902, Final residual = 0.012019, No Iterations 8
GAMG:  Solving for p, Initial residual = 0.0366223, Final residual = 0.000266572, No Iterations 4
time step continuity errors : sum local = 0.000769246, global = 6.67381e-06, cumulative = 0.00010276
smoothSolver:  Solving for omega, Initial residual = 0.53845, Final residual = 3.04034e-07, No Iterations 1
bounding omega, min: -2428.96 max: 1.12266e+10 average: 26421.9
smoothSolver:  Solving for k, Initial residual = 0.00501131, Final residual = 0.000248919, No Iterations 4
bounding k, min: -2.52799e-05 max: 459.855 average: 0.579358
ExecutionTime = 3.41 s  ClockTime = 3 s

forceCoeffs forceCoeffs1 write:
    Cm    = 0.174872
    Cd    = 0.437842
    Cl    = 0.0248924
    Cl(f) = 0.187318
    Cl(r) = -0.162426

Time = 19

smoothSolver:  Solving for Ux, Initial residual = 0.00523403, Final residual = 0.000456973, No Iterations 9
smoothSolver:  Solving for Uy, Initial residual = 0.0977836, Final residual = 0.00806028, No Iterations 9
smoothSolver:  Solving for Uz, Initial residual = 0.119419, Final residual = 0.00958761, No Iterations 9
GAMG:  Solving for p, Initial residual = 0.0365033, Final residual = 0.000280369, No Iterations 4
time step continuity errors : sum local = 0.000771457, global = 7.04291e-06, cumulative = 0.000109803
smoothSolver:  Solving for omega, Initial residual = 0.538409, Final residual = 1.00103e-06, No Iterations 1
bounding omega, min: -2663.29 max: 3.36799e+09 average: 8747.42
smoothSolver:  Solving for k, Initial residual = 0.00565405, Final residual = 0.000286025, No Iterations 4
bounding k, min: -1.73731e-05 max: 395.018 average: 0.588726
ExecutionTime = 3.56 s  ClockTime = 4 s

forceCoeffs forceCoeffs1 write:
    Cm    = 0.172848
    Cd    = 0.431836
    Cl    = 0.0175289
    Cl(f) = 0.181613
    Cl(r) = -0.164084

Time = 20

smoothSolver:  Solving for Ux, Initial residual = 0.00506889, Final residual = 0.000455084, No Iterations 9
smoothSolver:  Solving for Uy, Initial residual = 0.0963791, Final residual = 0.00813441, No Iterations 9
smoothSolver:  Solving for Uz, Initial residual = 0.116681, Final residual = 0.00966849, No Iterations 9
GAMG:  Solving for p, Initial residual = 0.0359803, Final residual = 0.000288365, No Iterations 4
time step continuity errors : sum local = 0.000760495, global = 6.09044e-06, cumulative = 0.000115894
smoothSolver:  Solving for omega, Initial residual = 0.53824, Final residual = 3.23043e-06, No Iterations 1
bounding omega, min: -5242.53 max: 1.0104e+09 average: 3421.38
smoothSolver:  Solving for k, Initial residual = 0.00596697, Final residual = 0.000309303, No Iterations 4
bounding k, min: -2.84703e-07 max: 440.388 average: 0.597427
ExecutionTime = 3.71 s  ClockTime = 4 s

forceCoeffs forceCoeffs1 write:
    Cm    = 0.17172
    Cd    = 0.426887
    Cl    = 0.00942648
    Cl(f) = 0.176433
    Cl(r) = -0.167006

Time = 21

smoothSolver:  Solving for Ux, Initial residual = 0.00488841, Final residual = 0.000453279, No Iterations 9
smoothSolver:  Solving for Uy, Initial residual = 0.0957536, Final residual = 0.00828297, No Iterations 9
smoothSolver:  Solving for Uz, Initial residual = 0.11303, Final residual = 0.00970471, No Iterations 9
GAMG:  Solving for p, Initial residual = 0.0352495, Final residual = 0.000285767, No Iterations 4
time step continuity errors : sum local = 0.000728704, global = 4.2768e-06, cumulative = 0.00012017
smoothSolver:  Solving for omega, Initial residual = 0.537351, Final residual = 1.06138e-05, No Iterations 1
bounding omega, min: -2736.73 max: 3.0312e+08 average: 1803.63
smoothSolver:  Solving for k, Initial residual = 0.00609493, Final residual = 0.000328302, No Iterations 4
ExecutionTime = 3.86 s  ClockTime = 4 s

forceCoeffs forceCoeffs1 write:
    Cm    = 0.169445
    Cd    = 0.420647
    Cl    = 0.00299023
    Cl(f) = 0.17094
    Cl(r) = -0.16795

Time = 22

smoothSolver:  Solving for Ux, Initial residual = 0.0047408, Final residual = 0.000451766, No Iterations 9
smoothSolver:  Solving for Uy, Initial residual = 0.0956717, Final residual = 0.00847588, No Iterations 9
smoothSolver:  Solving for Uz, Initial residual = 0.109847, Final residual = 0.00972136, No Iterations 9
GAMG:  Solving for p, Initial residual = 0.0342456, Final residual = 0.00027886, No Iterations 4
time step continuity errors : sum local = 0.000692479, global = 3.1201e-06, cumulative = 0.00012329
smoothSolver:  Solving for omega, Initial residual = 0.530851, Final residual = 3.52562e-05, No Iterations 1
bounding omega, min: -3735.6 max: 9.09367e+07 average: 1303.36
smoothSolver:  Solving for k, Initial residual = 0.00611833, Final residual = 0.000338701, No Iterations 4
bounding k, min: -2.33426e-06 max: 449.384 average: 0.615271
ExecutionTime = 4 s  ClockTime = 4 s

forceCoeffs forceCoeffs1 write:
    Cm    = 0.167289
    Cd    = 0.41661
    Cl    = -0.000472156
    Cl(f) = 0.167053
    Cl(r) = -0.167525

Time = 23

smoothSolver:  Solving for Ux, Initial residual = 0.0046069, Final residual = 0.000448719, No Iterations 9
smoothSolver:  Solving for Uy, Initial residual = 0.0956556, Final residual = 0.00872011, No Iterations 9
smoothSolver:  Solving for Uz, Initial residual = 0.105706, Final residual = 0.00962245, No Iterations 9
GAMG:  Solving for p, Initial residual = 0.0332142, Final residual = 0.000267288, No Iterations 4
time step continuity errors : sum local = 0.000648208, global = 2.65403e-06, cumulative = 0.000125945
smoothSolver:  Solving for omega, Initial residual = 0.476798, Final residual = 0.000114405, No Iterations 1
bounding omega, min: -6525.21 max: 8.89187e+07 average: 1138.77
smoothSolver:  Solving for k, Initial residual = 0.00611898, Final residual = 0.000343028, No Iterations 4
ExecutionTime = 4.15 s  ClockTime = 4 s

forceCoeffs forceCoeffs1 write:
    Cm    = 0.164748
    Cd    = 0.41163
    Cl    = -0.00050342
    Cl(f) = 0.164496
    Cl(r) = -0.164999

Time = 24

smoothSolver:  Solving for Ux, Initial residual = 0.00448256, Final residual = 0.000446068, No Iterations 9
smoothSolver:  Solving for Uy, Initial residual = 0.0961405, Final residual = 0.00897101, No Iterations 9
smoothSolver:  Solving for Uz, Initial residual = 0.101392, Final residual = 0.00944832, No Iterations 9
GAMG:  Solving for p, Initial residual = 0.0322749, Final residual = 0.000259782, No Iterations 4
time step continuity errors : sum local = 0.000615774, global = 1.98863e-06, cumulative = 0.000127933
smoothSolver:  Solving for omega, Initial residual = 0.23162, Final residual = 0.000245837, No Iterations 1
bounding omega, min: -4768.74 max: 8.89187e+07 average: 1078.35
smoothSolver:  Solving for k, Initial residual = 0.00608613, Final residual = 0.000344524, No Iterations 4
ExecutionTime = 4.3 s  ClockTime = 4 s

forceCoeffs forceCoeffs1 write:
    Cm    = 0.163417
    Cd    = 0.408811
    Cl    = 0.00275242
    Cl(f) = 0.164793
    Cl(r) = -0.162041

Time = 25

smoothSolver:  Solving for Ux, Initial residual = 0.0043501, Final residual = 0.000351895, No Iterations 10
smoothSolver:  Solving for Uy, Initial residual = 0.0949616, Final residual = 0.00906908, No Iterations 9
smoothSolver:  Solving for Uz, Initial residual = 0.096616, Final residual = 0.00922431, No Iterations 9
GAMG:  Solving for p, Initial residual = 0.0314669, Final residual = 0.000255498, No Iterations 4
time step continuity errors : sum local = 0.000591719, global = -7.66281e-07, cumulative = 0.000127167
smoothSolver:  Solving for omega, Initial residual = 0.0357985, Final residual = 0.000229859, No Iterations 1
bounding omega, min: -7901.76 max: 8.89187e+07 average: 1050.69
smoothSolver:  Solving for k, Initial residual = 0.00605779, Final residual = 0.000345991, No Iterations 4
ExecutionTime = 4.44 s  ClockTime = 5 s

forceCoeffs forceCoeffs1 write:
    Cm    = 0.164183
    Cd    = 0.409468
    Cl    = 0.00861355
    Cl(f) = 0.168489
    Cl(r) = -0.159876

Time = 26

smoothSolver:  Solving for Ux, Initial residual = 0.00421019, Final residual = 0.000345471, No Iterations 10
smoothSolver:  Solving for Uy, Initial residual = 0.0924619, Final residual = 0.00895791, No Iterations 9
smoothSolver:  Solving for Uz, Initial residual = 0.0916874, Final residual = 0.00895517, No Iterations 9
GAMG:  Solving for p, Initial residual = 0.0305618, Final residual = 0.000251608, No Iterations 4
time step continuity errors : sum local = 0.000567553, global = -4.93224e-06, cumulative = 0.000122235
smoothSolver:  Solving for omega, Initial residual = 0.00389846, Final residual = 0.00018256, No Iterations 1
bounding omega, min: -9672.43 max: 8.89187e+07 average: 1034.36
smoothSolver:  Solving for k, Initial residual = 0.00596813, Final residual = 0.000345603, No Iterations 4
ExecutionTime = 4.59 s  ClockTime = 5 s

forceCoeffs forceCoeffs1 write:
    Cm    = 0.166044
    Cd    = 0.411372
    Cl    = 0.0172482
    Cl(f) = 0.174668
    Cl(r) = -0.15742

Time = 27

smoothSolver:  Solving for Ux, Initial residual = 0.00407193, Final residual = 0.000337505, No Iterations 10
smoothSolver:  Solving for Uy, Initial residual = 0.0887961, Final residual = 0.00869208, No Iterations 9
smoothSolver:  Solving for Uz, Initial residual = 0.0866468, Final residual = 0.00862575, No Iterations 9
GAMG:  Solving for p, Initial residual = 0.0297823, Final residual = 0.00024646, No Iterations 4
time step continuity errors : sum local = 0.000540795, global = -1.00875e-05, cumulative = 0.000112147
smoothSolver:  Solving for omega, Initial residual = 0.000704529, Final residual = 6.87106e-05, No Iterations 2
bounding omega, min: -10513.6 max: 8.89187e+07 average: 1019.19
smoothSolver:  Solving for k, Initial residual = 0.00584628, Final residual = 0.000344366, No Iterations 4
ExecutionTime = 4.74 s  ClockTime = 5 s

forceCoeffs forceCoeffs1 write:
    Cm    = 0.168383
    Cd    = 0.414868
    Cl    = 0.025571
    Cl(f) = 0.181168
    Cl(r) = -0.155597

Time = 28

smoothSolver:  Solving for Ux, Initial residual = 0.00393114, Final residual = 0.00032834, No Iterations 10
smoothSolver:  Solving for Uy, Initial residual = 0.0850602, Final residual = 0.00839627, No Iterations 9
smoothSolver:  Solving for Uz, Initial residual = 0.0820992, Final residual = 0.00661011, No Iterations 10
GAMG:  Solving for p, Initial residual = 0.0292358, Final residual = 0.0002462, No Iterations 4
time step continuity errors : sum local = 0.000525975, global = -1.56959e-05, cumulative = 9.64513e-05
smoothSolver:  Solving for omega, Initial residual = 0.000342945, Final residual = 2.80204e-05, No Iterations 3
bounding omega, min: -10639 max: 8.89187e+07 average: 1005.87
smoothSolver:  Solving for k, Initial residual = 0.00571209, Final residual = 0.000342489, No Iterations 4
ExecutionTime = 4.88 s  ClockTime = 5 s

forceCoeffs forceCoeffs1 write:
    Cm    = 0.169821
    Cd    = 0.417965
    Cl    = 0.0321966
    Cl(f) = 0.185919
    Cl(r) = -0.153723

Time = 29

smoothSolver:  Solving for Ux, Initial residual = 0.00378948, Final residual = 0.00031883, No Iterations 10
smoothSolver:  Solving for Uy, Initial residual = 0.0817377, Final residual = 0.00813637, No Iterations 9
smoothSolver:  Solving for Uz, Initial residual = 0.0777565, Final residual = 0.00630519, No Iterations 10
GAMG:  Solving for p, Initial residual = 0.0285813, Final residual = 0.000236053, No Iterations 4
time step continuity errors : sum local = 0.000491208, global = -1.98723e-05, cumulative = 7.6579e-05
smoothSolver:  Solving for omega, Initial residual = 0.000274086, Final residual = 2.49428e-05, No Iterations 3
bounding omega, min: -10888.2 max: 8.89187e+07 average: 994.903
smoothSolver:  Solving for k, Initial residual = 0.00565098, Final residual = 0.000345447, No Iterations 4
ExecutionTime = 5.03 s  ClockTime = 5 s

forceCoeffs forceCoeffs1 write:
    Cm    = 0.170264
    Cd    = 0.419946
    Cl    = 0.0373816
    Cl(f) = 0.188955
    Cl(r) = -0.151574

Time = 30

smoothSolver:  Solving for Ux, Initial residual = 0.00364836, Final residual = 0.000308307, No Iterations 10
smoothSolver:  Solving for Uy, Initial residual = 0.0792667, Final residual = 0.0063345, No Iterations 10
smoothSolver:  Solving for Uz, Initial residual = 0.074228, Final residual = 0.00605873, No Iterations 10
GAMG:  Solving for p, Initial residual = 0.0280027, Final residual = 0.000227028, No Iterations 4
time step continuity errors : sum local = 0.00046034, global = -2.03608e-05, cumulative = 5.62182e-05
smoothSolver:  Solving for omega, Initial residual = 0.000244745, Final residual = 2.27019e-05, No Iterations 3
bounding omega, min: -8409.63 max: 8.89187e+07 average: 987.005
smoothSolver:  Solving for k, Initial residual = 0.00560744, Final residual = 0.000348056, No Iterations 4
ExecutionTime = 5.18 s  ClockTime = 5 s

forceCoeffs forceCoeffs1 write:
    Cm    = 0.170052
    Cd    = 0.420695
    Cl    = 0.0414305
    Cl(f) = 0.190768
    Cl(r) = -0.149337

Time = 31

smoothSolver:  Solving for Ux, Initial residual = 0.00351701, Final residual = 0.000297902, No Iterations 10
smoothSolver:  Solving for Uy, Initial residual = 0.0769531, Final residual = 0.00621837, No Iterations 10
smoothSolver:  Solving for Uz, Initial residual = 0.0718454, Final residual = 0.0058717, No Iterations 10
GAMG:  Solving for p, Initial residual = 0.0274191, Final residual = 0.000220868, No Iterations 4
time step continuity errors : sum local = 0.000435603, global = -1.99246e-05, cumulative = 3.62936e-05
smoothSolver:  Solving for omega, Initial residual = 0.000227871, Final residual = 2.10838e-05, No Iterations 3
bounding omega, min: -8268.04 max: 8.89187e+07 average: 980.119
smoothSolver:  Solving for k, Initial residual = 0.0055334, Final residual = 0.000346719, No Iterations 4
ExecutionTime = 5.32 s  ClockTime = 5 s

forceCoeffs forceCoeffs1 write:
    Cm    = 0.170301
    Cd    = 0.421004
    Cl    = 0.045226
    Cl(f) = 0.192914
    Cl(r) = -0.147688

Time = 32

smoothSolver:  Solving for Ux, Initial residual = 0.00339132, Final residual = 0.000288313, No Iterations 10
smoothSolver:  Solving for Uy, Initial residual = 0.0745456, Final residual = 0.00606534, No Iterations 10
smoothSolver:  Solving for Uz, Initial residual = 0.0696011, Final residual = 0.00567723, No Iterations 10
GAMG:  Solving for p, Initial residual = 0.026972, Final residual = 0.000217003, No Iterations 4
time step continuity errors : sum local = 0.000416212, global = -2.00416e-05, cumulative = 1.6252e-05
smoothSolver:  Solving for omega, Initial residual = 0.000215973, Final residual = 1.9884e-05, No Iterations 3
bounding omega, min: -10828.5 max: 8.89187e+07 average: 974.708
smoothSolver:  Solving for k, Initial residual = 0.00544108, Final residual = 0.000342841, No Iterations 4
ExecutionTime = 5.48 s  ClockTime = 6 s

forceCoeffs forceCoeffs1 write:
    Cm    = 0.171015
    Cd    = 0.421194
    Cl    = 0.0490601
    Cl(f) = 0.195545
    Cl(r) = -0.146485

Time = 33

smoothSolver:  Solving for Ux, Initial residual = 0.00327689, Final residual = 0.000279957, No Iterations 10
smoothSolver:  Solving for Uy, Initial residual = 0.0717095, Final residual = 0.00583212, No Iterations 10
smoothSolver:  Solving for Uz, Initial residual = 0.0671748, Final residual = 0.00547908, No Iterations 10
GAMG:  Solving for p, Initial residual = 0.026491, Final residual = 0.000213444, No Iterations 4
time step continuity errors : sum local = 0.000398751, global = -1.98986e-05, cumulative = -3.64652e-06
smoothSolver:  Solving for omega, Initial residual = 0.000205292, Final residual = 1.8927e-05, No Iterations 3
bounding omega, min: -14652.9 max: 8.89187e+07 average: 970.329
smoothSolver:  Solving for k, Initial residual = 0.00535121, Final residual = 0.000338315, No Iterations 4
ExecutionTime = 5.62 s  ClockTime = 6 s

forceCoeffs forceCoeffs1 write:
    Cm    = 0.171583
    Cd    = 0.420982
    Cl    = 0.0523499
    Cl(f) = 0.197758
    Cl(r) = -0.145408

Time = 34

smoothSolver:  Solving for Ux, Initial residual = 0.00316724, Final residual = 0.000273131, No Iterations 10
smoothSolver:  Solving for Uy, Initial residual = 0.0687207, Final residual = 0.00559562, No Iterations 10
smoothSolver:  Solving for Uz, Initial residual = 0.0643382, Final residual = 0.00527072, No Iterations 10
GAMG:  Solving for p, Initial residual = 0.0258975, Final residual = 0.000210802, No Iterations 4
time step continuity errors : sum local = 0.000384869, global = -1.84071e-05, cumulative = -2.20536e-05
smoothSolver:  Solving for omega, Initial residual = 0.000195375, Final residual = 1.81428e-05, No Iterations 3
bounding omega, min: -8919.87 max: 8.89187e+07 average: 967.025
smoothSolver:  Solving for k, Initial residual = 0.0052734, Final residual = 0.000334397, No Iterations 4
ExecutionTime = 5.78 s  ClockTime = 6 s

forceCoeffs forceCoeffs1 write:
    Cm    = 0.171486
    Cd    = 0.419832
    Cl    = 0.0550921
    Cl(f) = 0.199032
    Cl(r) = -0.14394

Time = 35

smoothSolver:  Solving for Ux, Initial residual = 0.00306892, Final residual = 0.000267628, No Iterations 10
smoothSolver:  Solving for Uy, Initial residual = 0.0658851, Final residual = 0.00541533, No Iterations 10
smoothSolver:  Solving for Uz, Initial residual = 0.0610873, Final residual = 0.00504842, No Iterations 10
GAMG:  Solving for p, Initial residual = 0.025281, Final residual = 0.000206625, No Iterations 4
time step continuity errors : sum local = 0.000369855, global = -1.5739e-05, cumulative = -3.77926e-05
smoothSolver:  Solving for omega, Initial residual = 0.000188643, Final residual = 1.75454e-05, No Iterations 3
bounding omega, min: -13602.8 max: 8.89187e+07 average: 964.193
smoothSolver:  Solving for k, Initial residual = 0.00521572, Final residual = 0.000330951, No Iterations 4
ExecutionTime = 5.92 s  ClockTime = 6 s

forceCoeffs forceCoeffs1 write:
    Cm    = 0.170869
    Cd    = 0.418061
    Cl    = 0.0578025
    Cl(f) = 0.19977
    Cl(r) = -0.141968

Time = 36

smoothSolver:  Solving for Ux, Initial residual = 0.00297317, Final residual = 0.000262584, No Iterations 10
smoothSolver:  Solving for Uy, Initial residual = 0.0632464, Final residual = 0.00525392, No Iterations 10
smoothSolver:  Solving for Uz, Initial residual = 0.0575525, Final residual = 0.00480361, No Iterations 10
GAMG:  Solving for p, Initial residual = 0.0246751, Final residual = 0.000201643, No Iterations 4
time step continuity errors : sum local = 0.000354974, global = -1.29243e-05, cumulative = -5.07169e-05
smoothSolver:  Solving for omega, Initial residual = 0.000180298, Final residual = 1.69931e-05, No Iterations 3
bounding omega, min: -14798.8 max: 8.89187e+07 average: 961.468
smoothSolver:  Solving for k, Initial residual = 0.00514944, Final residual = 0.000327339, No Iterations 4
ExecutionTime = 6.08 s  ClockTime = 6 s

forceCoeffs forceCoeffs1 write:
    Cm    = 0.16966
    Cd    = 0.415809
    Cl    = 0.0606821
    Cl(f) = 0.200001
    Cl(r) = -0.139319

Time = 37

smoothSolver:  Solving for Ux, Initial residual = 0.00287472, Final residual = 0.00025685, No Iterations 10
smoothSolver:  Solving for Uy, Initial residual = 0.0609626, Final residual = 0.00510795, No Iterations 10
smoothSolver:  Solving for Uz, Initial residual = 0.0541517, Final residual = 0.00456011, No Iterations 10
GAMG:  Solving for p, Initial residual = 0.0240044, Final residual = 0.000193135, No Iterations 4
time step continuity errors : sum local = 0.000335066, global = -1.04513e-05, cumulative = -6.11682e-05
smoothSolver:  Solving for omega, Initial residual = 0.000172707, Final residual = 1.65042e-05, No Iterations 3
bounding omega, min: -16339.7 max: 8.89187e+07 average: 960.313
smoothSolver:  Solving for k, Initial residual = 0.00507881, Final residual = 0.000323594, No Iterations 4
ExecutionTime = 6.22 s  ClockTime = 6 s

forceCoeffs forceCoeffs1 write:
    Cm    = 0.16842
    Cd    = 0.413854
    Cl    = 0.062936
    Cl(f) = 0.199888
    Cl(r) = -0.136952

Time = 38

smoothSolver:  Solving for Ux, Initial residual = 0.0027812, Final residual = 0.000251562, No Iterations 10
smoothSolver:  Solving for Uy, Initial residual = 0.05915, Final residual = 0.00500716, No Iterations 10
smoothSolver:  Solving for Uz, Initial residual = 0.0512151, Final residual = 0.00434621, No Iterations 10
GAMG:  Solving for p, Initial residual = 0.0232516, Final residual = 0.000184133, No Iterations 4
time step continuity errors : sum local = 0.000315498, global = -8.94268e-06, cumulative = -7.01108e-05
smoothSolver:  Solving for omega, Initial residual = 0.000168673, Final residual = 1.60687e-05, No Iterations 3
bounding omega, min: -19180.9 max: 8.89187e+07 average: 958.73
smoothSolver:  Solving for k, Initial residual = 0.00499059, Final residual = 0.000318998, No Iterations 4
ExecutionTime = 6.37 s  ClockTime = 6 s

forceCoeffs forceCoeffs1 write:
    Cm    = 0.166826
    Cd    = 0.411618
    Cl    = 0.0646329
    Cl(f) = 0.199142
    Cl(r) = -0.13451

Time = 39

smoothSolver:  Solving for Ux, Initial residual = 0.0027071, Final residual = 0.000247199, No Iterations 10
smoothSolver:  Solving for Uy, Initial residual = 0.0575359, Final residual = 0.00493036, No Iterations 10
smoothSolver:  Solving for Uz, Initial residual = 0.0488277, Final residual = 0.0041742, No Iterations 10
GAMG:  Solving for p, Initial residual = 0.0224148, Final residual = 0.000175337, No Iterations 4
time step continuity errors : sum local = 0.000297099, global = -8.31366e-06, cumulative = -7.84245e-05
smoothSolver:  Solving for omega, Initial residual = 0.000166992, Final residual = 1.56421e-05, No Iterations 3
bounding omega, min: -18218.9 max: 8.89187e+07 average: 958.546
smoothSolver:  Solving for k, Initial residual = 0.00489346, Final residual = 0.000314256, No Iterations 4
ExecutionTime = 6.52 s  ClockTime = 7 s

forceCoeffs forceCoeffs1 write:
    Cm    = 0.165137
    Cd    = 0.409417
    Cl    = 0.0658472
    Cl(f) = 0.198061
    Cl(r) = -0.132214

Time = 40

smoothSolver:  Solving for Ux, Initial residual = 0.00263731, Final residual = 0.000243435, No Iterations 10
smoothSolver:  Solving for Uy, Initial residual = 0.0560433, Final residual = 0.00486576, No Iterations 10
smoothSolver:  Solving for Uz, Initial residual = 0.0468361, Final residual = 0.00404347, No Iterations 10
GAMG:  Solving for p, Initial residual = 0.0216663, Final residual = 0.000170662, No Iterations 4
time step continuity errors : sum local = 0.000286244, global = -8.26332e-06, cumulative = -8.66878e-05
smoothSolver:  Solving for omega, Initial residual = 0.000166906, Final residual = 1.52504e-05, No Iterations 3
bounding omega, min: -11738.5 max: 8.89187e+07 average: 957.523
smoothSolver:  Solving for k, Initial residual = 0.00479549, Final residual = 0.000309487, No Iterations 4
ExecutionTime = 6.67 s  ClockTime = 7 s

forceCoeffs forceCoeffs1 write:
    Cm    = 0.163124
    Cd    = 0.406124
    Cl    = 0.0664439
    Cl(f) = 0.196346
    Cl(r) = -0.129902

Time = 41

smoothSolver:  Solving for Ux, Initial residual = 0.00257584, Final residual = 0.00023975, No Iterations 10
smoothSolver:  Solving for Uy, Initial residual = 0.0544533, Final residual = 0.00478024, No Iterations 10
smoothSolver:  Solving for Uz, Initial residual = 0.0451437, Final residual = 0.00393106, No Iterations 10
GAMG:  Solving for p, Initial residual = 0.0211327, Final residual = 0.000170154, No Iterations 4
time step continuity errors : sum local = 0.000282727, global = -8.48221e-06, cumulative = -9.517e-05
smoothSolver:  Solving for omega, Initial residual = 0.000161644, Final residual = 1.48745e-05, No Iterations 3
bounding omega, min: -7646.57 max: 8.89187e+07 average: 957.564
smoothSolver:  Solving for k, Initial residual = 0.00470281, Final residual = 0.000303814, No Iterations 4
ExecutionTime = 6.82 s  ClockTime = 7 s

forceCoeffs forceCoeffs1 write:
    Cm    = 0.161362
    Cd    = 0.402859
    Cl    = 0.0656768
    Cl(f) = 0.194201
    Cl(r) = -0.128524

Time = 42

smoothSolver:  Solving for Ux, Initial residual = 0.00251275, Final residual = 0.000235638, No Iterations 10
smoothSolver:  Solving for Uy, Initial residual = 0.0527113, Final residual = 0.00465312, No Iterations 10
smoothSolver:  Solving for Uz, Initial residual = 0.0436065, Final residual = 0.00381773, No Iterations 10
GAMG:  Solving for p, Initial residual = 0.020743, Final residual = 0.000169944, No Iterations 4
time step continuity errors : sum local = 0.00028014, global = -8.57474e-06, cumulative = -0.000103745
smoothSolver:  Solving for omega, Initial residual = 0.000149773, Final residual = 1.45015e-05, No Iterations 3
bounding omega, min: -7458.82 max: 8.89187e+07 average: 957.091
smoothSolver:  Solving for k, Initial residual = 0.00461647, Final residual = 0.000298126, No Iterations 4
ExecutionTime = 6.96 s  ClockTime = 7 s

forceCoeffs forceCoeffs1 write:
    Cm    = 0.159721
    Cd    = 0.399362
    Cl    = 0.0646126
    Cl(f) = 0.192027
    Cl(r) = -0.127414

Time = 43

smoothSolver:  Solving for Ux, Initial residual = 0.00245662, Final residual = 0.000231111, No Iterations 10
smoothSolver:  Solving for Uy, Initial residual = 0.0509502, Final residual = 0.004499, No Iterations 10
smoothSolver:  Solving for Uz, Initial residual = 0.0421749, Final residual = 0.00368528, No Iterations 10
GAMG:  Solving for p, Initial residual = 0.0204484, Final residual = 0.000168143, No Iterations 4
time step continuity errors : sum local = 0.000275328, global = -8.0884e-06, cumulative = -0.000111833
smoothSolver:  Solving for omega, Initial residual = 0.00015082, Final residual = 1.4191e-05, No Iterations 3
bounding omega, min: -5892.92 max: 8.89187e+07 average: 957.107
smoothSolver:  Solving for k, Initial residual = 0.00454459, Final residual = 0.000293731, No Iterations 4
ExecutionTime = 7.12 s  ClockTime = 7 s

forceCoeffs forceCoeffs1 write:
    Cm    = 0.158492
    Cd    = 0.396604
    Cl    = 0.0631171
    Cl(f) = 0.19005
    Cl(r) = -0.126933

Time = 44

smoothSolver:  Solving for Ux, Initial residual = 0.00240088, Final residual = 0.000225963, No Iterations 10
smoothSolver:  Solving for Uy, Initial residual = 0.0492772, Final residual = 0.0043262, No Iterations 10
smoothSolver:  Solving for Uz, Initial residual = 0.0408149, Final residual = 0.00354193, No Iterations 10
GAMG:  Solving for p, Initial residual = 0.0201727, Final residual = 0.000162065, No Iterations 4
time step continuity errors : sum local = 0.000263867, global = -7.47031e-06, cumulative = -0.000119303
smoothSolver:  Solving for omega, Initial residual = 0.000144015, Final residual = 1.38671e-05, No Iterations 3
bounding omega, min: -5826.41 max: 8.89187e+07 average: 956.814
smoothSolver:  Solving for k, Initial residual = 0.00447064, Final residual = 0.000289972, No Iterations 4
ExecutionTime = 7.26 s  ClockTime = 7 s

forceCoeffs forceCoeffs1 write:
    Cm    = 0.1575
    Cd    = 0.394389
    Cl    = 0.0618957
    Cl(f) = 0.188448
    Cl(r) = -0.126552

Time = 45

smoothSolver:  Solving for Ux, Initial residual = 0.00235092, Final residual = 0.000220282, No Iterations 10
smoothSolver:  Solving for Uy, Initial residual = 0.0478867, Final residual = 0.00416171, No Iterations 10
smoothSolver:  Solving for Uz, Initial residual = 0.0394961, Final residual = 0.00339284, No Iterations 10
GAMG:  Solving for p, Initial residual = 0.0198697, Final residual = 0.000155112, No Iterations 4
time step continuity errors : sum local = 0.000251459, global = -6.77489e-06, cumulative = -0.000126078
smoothSolver:  Solving for omega, Initial residual = 0.000142224, Final residual = 1.35755e-05, No Iterations 3
bounding omega, min: -5722.42 max: 8.89187e+07 average: 956.871
smoothSolver:  Solving for k, Initial residual = 0.00440514, Final residual = 0.000285303, No Iterations 4
ExecutionTime = 7.41 s  ClockTime = 8 s

forceCoeffs forceCoeffs1 write:
    Cm    = 0.156783
    Cd    = 0.393105
    Cl    = 0.0613294
    Cl(f) = 0.187448
    Cl(r) = -0.126118

Time = 46

smoothSolver:  Solving for Ux, Initial residual = 0.00230819, Final residual = 0.000215413, No Iterations 10
smoothSolver:  Solving for Uy, Initial residual = 0.0468795, Final residual = 0.0040278, No Iterations 10
smoothSolver:  Solving for Uz, Initial residual = 0.038355, Final residual = 0.00325611, No Iterations 10
GAMG:  Solving for p, Initial residual = 0.01959, Final residual = 0.000151522, No Iterations 4
time step continuity errors : sum local = 0.00024438, global = -6.34825e-06, cumulative = -0.000132427
smoothSolver:  Solving for omega, Initial residual = 0.000137434, Final residual = 1.32949e-05, No Iterations 3
bounding omega, min: -13946.2 max: 8.89187e+07 average: 957.176
smoothSolver:  Solving for k, Initial residual = 0.00431392, Final residual = 0.00027862, No Iterations 4
ExecutionTime = 7.56 s  ClockTime = 8 s

forceCoeffs forceCoeffs1 write:
    Cm    = 0.156266
    Cd    = 0.392709
    Cl    = 0.0614139
    Cl(f) = 0.186973
    Cl(r) = -0.125559

Time = 47

smoothSolver:  Solving for Ux, Initial residual = 0.00227174, Final residual = 0.000210619, No Iterations 10
smoothSolver:  Solving for Uy, Initial residual = 0.0460221, Final residual = 0.00392552, No Iterations 10
smoothSolver:  Solving for Uz, Initial residual = 0.0375307, Final residual = 0.00315261, No Iterations 10
GAMG:  Solving for p, Initial residual = 0.0193016, Final residual = 0.000149557, No Iterations 4
time step continuity errors : sum local = 0.000239628, global = -6.21599e-06, cumulative = -0.000138643
smoothSolver:  Solving for omega, Initial residual = 0.000137137, Final residual = 1.30165e-05, No Iterations 3
bounding omega, min: -5582.63 max: 8.89187e+07 average: 957.271
smoothSolver:  Solving for k, Initial residual = 0.00420607, Final residual = 0.000270086, No Iterations 4
ExecutionTime = 7.72 s  ClockTime = 8 s

forceCoeffs forceCoeffs1 write:
    Cm    = 0.156073
    Cd    = 0.393161
    Cl    = 0.0620413
    Cl(f) = 0.187094
    Cl(r) = -0.125053

Time = 48

smoothSolver:  Solving for Ux, Initial residual = 0.00223228, Final residual = 0.000205806, No Iterations 10
smoothSolver:  Solving for Uy, Initial residual = 0.0451473, Final residual = 0.00384177, No Iterations 10
smoothSolver:  Solving for Uz, Initial residual = 0.0368198, Final residual = 0.00307237, No Iterations 10
GAMG:  Solving for p, Initial residual = 0.0189615, Final residual = 0.000147793, No Iterations 4
time step continuity errors : sum local = 0.000235066, global = -6.04403e-06, cumulative = -0.000144687
smoothSolver:  Solving for omega, Initial residual = 0.000134078, Final residual = 1.26971e-05, No Iterations 3
bounding omega, min: -5978.66 max: 8.89187e+07 average: 958.403
smoothSolver:  Solving for k, Initial residual = 0.00409793, Final residual = 0.000260935, No Iterations 4
ExecutionTime = 7.89 s  ClockTime = 8 s

forceCoeffs forceCoeffs1 write:
    Cm    = 0.156342
    Cd    = 0.394684
    Cl    = 0.0628463
    Cl(f) = 0.187766
    Cl(r) = -0.124919

Time = 49

smoothSolver:  Solving for Ux, Initial residual = 0.00218535, Final residual = 0.000200994, No Iterations 10
smoothSolver:  Solving for Uy, Initial residual = 0.0442193, Final residual = 0.00377291, No Iterations 10
smoothSolver:  Solving for Uz, Initial residual = 0.0361038, Final residual = 0.00300989, No Iterations 10
GAMG:  Solving for p, Initial residual = 0.0185363, Final residual = 0.000143638, No Iterations 4
time step continuity errors : sum local = 0.000226851, global = -5.71791e-06, cumulative = -0.000150405
smoothSolver:  Solving for omega, Initial residual = 0.000131318, Final residual = 1.23333e-05, No Iterations 3
bounding omega, min: -6843.21 max: 8.89187e+07 average: 959.349
smoothSolver:  Solving for k, Initial residual = 0.00397934, Final residual = 0.00025216, No Iterations 4
ExecutionTime = 8.04 s  ClockTime = 8 s

forceCoeffs forceCoeffs1 write:
    Cm    = 0.156762
    Cd    = 0.396679
    Cl    = 0.0641678
    Cl(f) = 0.188846
    Cl(r) = -0.124678

Time = 50

smoothSolver:  Solving for Ux, Initial residual = 0.00213223, Final residual = 0.000196464, No Iterations 10
smoothSolver:  Solving for Uy, Initial residual = 0.0433563, Final residual = 0.0036923, No Iterations 10
smoothSolver:  Solving for Uz, Initial residual = 0.0355447, Final residual = 0.00296455, No Iterations 10
GAMG:  Solving for p, Initial residual = 0.0181325, Final residual = 0.000139842, No Iterations 4
time step continuity errors : sum local = 0.000219437, global = -5.51685e-06, cumulative = -0.000155921
smoothSolver:  Solving for omega, Initial residual = 0.000126702, Final residual = 1.1949e-05, No Iterations 3
bounding omega, min: -8445.85 max: 8.89187e+07 average: 960.885
smoothSolver:  Solving for k, Initial residual = 0.00385804, Final residual = 0.000244062, No Iterations 4
ExecutionTime = 8.22 s  ClockTime = 8 s

forceCoeffs forceCoeffs1 write:
    Cm    = 0.157216
    Cd    = 0.398838
    Cl    = 0.0663565
    Cl(f) = 0.190394
    Cl(r) = -0.124037

Time = 51

smoothSolver:  Solving for Ux, Initial residual = 0.00207546, Final residual = 0.000191858, No Iterations 10
smoothSolver:  Solving for Uy, Initial residual = 0.0425305, Final residual = 0.0036198, No Iterations 10
smoothSolver:  Solving for Uz, Initial residual = 0.0351388, Final residual = 0.00292388, No Iterations 10
GAMG:  Solving for p, Initial residual = 0.0176637, Final residual = 0.000136735, No Iterations 4
time step continuity errors : sum local = 0.000213339, global = -5.36094e-06, cumulative = -0.000161282
smoothSolver:  Solving for omega, Initial residual = 0.00012337, Final residual = 1.159e-05, No Iterations 3
bounding omega, min: -3340.15 max: 8.89187e+07 average: 962.001
smoothSolver:  Solving for k, Initial residual = 0.00373835, Final residual = 0.000236449, No Iterations 4
ExecutionTime = 8.37 s  ClockTime = 8 s

forceCoeffs forceCoeffs1 write:
    Cm    = 0.157569
    Cd    = 0.400883
    Cl    = 0.069422
    Cl(f) = 0.19228
    Cl(r) = -0.122858

Time = 52

smoothSolver:  Solving for Ux, Initial residual = 0.00201562, Final residual = 0.000187086, No Iterations 10
smoothSolver:  Solving for Uy, Initial residual = 0.0419653, Final residual = 0.0035589, No Iterations 10
smoothSolver:  Solving for Uz, Initial residual = 0.03469, Final residual = 0.00288318, No Iterations 10
GAMG:  Solving for p, Initial residual = 0.0172305, Final residual = 0.000133608, No Iterations 4
time step continuity errors : sum local = 0.000207303, global = -4.94966e-06, cumulative = -0.000166232
smoothSolver:  Solving for omega, Initial residual = 0.000118946, Final residual = 1.12758e-05, No Iterations 3
bounding omega, min: -9138.31 max: 8.89187e+07 average: 963.597
smoothSolver:  Solving for k, Initial residual = 0.00361964, Final residual = 0.000228852, No Iterations 4
ExecutionTime = 8.52 s  ClockTime = 9 s

forceCoeffs forceCoeffs1 write:
    Cm    = 0.157687
    Cd    = 0.402689
    Cl    = 0.07301
    Cl(f) = 0.194192
    Cl(r) = -0.121182

Time = 53

smoothSolver:  Solving for Ux, Initial residual = 0.00195617, Final residual = 0.000181674, No Iterations 10
smoothSolver:  Solving for Uy, Initial residual = 0.0414079, Final residual = 0.00350575, No Iterations 10
smoothSolver:  Solving for Uz, Initial residual = 0.0342238, Final residual = 0.0028448, No Iterations 10
GAMG:  Solving for p, Initial residual = 0.0168134, Final residual = 0.000130308, No Iterations 4
time step continuity errors : sum local = 0.000200983, global = -4.29674e-06, cumulative = -0.000170529
smoothSolver:  Solving for omega, Initial residual = 0.000114934, Final residual = 1.0971e-05, No Iterations 3
bounding omega, min: -3629.22 max: 8.89187e+07 average: 964.951
smoothSolver:  Solving for k, Initial residual = 0.0035015, Final residual = 0.000220424, No Iterations 4
ExecutionTime = 8.67 s  ClockTime = 9 s

forceCoeffs forceCoeffs1 write:
    Cm    = 0.157503
    Cd    = 0.403875
    Cl    = 0.0766001
    Cl(f) = 0.195803
    Cl(r) = -0.119203

Time = 54

smoothSolver:  Solving for Ux, Initial residual = 0.00189862, Final residual = 0.000175662, No Iterations 10
smoothSolver:  Solving for Uy, Initial residual = 0.0408095, Final residual = 0.00344316, No Iterations 10
smoothSolver:  Solving for Uz, Initial residual = 0.0335643, Final residual = 0.00279052, No Iterations 10
GAMG:  Solving for p, Initial residual = 0.0163981, Final residual = 0.000127299, No Iterations 4
time step continuity errors : sum local = 0.000195234, global = -3.62237e-06, cumulative = -0.000174151
smoothSolver:  Solving for omega, Initial residual = 0.000112539, Final residual = 1.06584e-05, No Iterations 3
bounding omega, min: -6137.24 max: 8.89187e+07 average: 966.534
smoothSolver:  Solving for k, Initial residual = 0.00338567, Final residual = 0.000212029, No Iterations 4
ExecutionTime = 8.82 s  ClockTime = 9 s

forceCoeffs forceCoeffs1 write:
    Cm    = 0.156996
    Cd    = 0.404367
    Cl    = 0.0796813
    Cl(f) = 0.196836
    Cl(r) = -0.117155

Time = 55

smoothSolver:  Solving for Ux, Initial residual = 0.00184572, Final residual = 0.000169032, No Iterations 10
smoothSolver:  Solving for Uy, Initial residual = 0.0399945, Final residual = 0.00335879, No Iterations 10
smoothSolver:  Solving for Uz, Initial residual = 0.032738, Final residual = 0.00270991, No Iterations 10
GAMG:  Solving for p, Initial residual = 0.0159434, Final residual = 0.000124166, No Iterations 4
time step continuity errors : sum local = 0.000189327, global = -2.84201e-06, cumulative = -0.000176993
smoothSolver:  Solving for omega, Initial residual = 0.000110764, Final residual = 1.03678e-05, No Iterations 3
bounding omega, min: -3711.36 max: 8.89187e+07 average: 967.885
smoothSolver:  Solving for k, Initial residual = 0.00326993, Final residual = 0.000204396, No Iterations 4
ExecutionTime = 8.97 s  ClockTime = 9 s

forceCoeffs forceCoeffs1 write:
    Cm    = 0.156215
    Cd    = 0.404004
    Cl    = 0.0821169
    Cl(f) = 0.197274
    Cl(r) = -0.115157

Time = 56

smoothSolver:  Solving for Ux, Initial residual = 0.00179458, Final residual = 0.000162742, No Iterations 10
smoothSolver:  Solving for Uy, Initial residual = 0.038896, Final residual = 0.00325179, No Iterations 10
smoothSolver:  Solving for Uz, Initial residual = 0.0317754, Final residual = 0.00260401, No Iterations 10
GAMG:  Solving for p, Initial residual = 0.0155672, Final residual = 0.0001239, No Iterations 4
time step continuity errors : sum local = 0.00018797, global = -1.9793e-06, cumulative = -0.000178972
smoothSolver:  Solving for omega, Initial residual = 0.000109411, Final residual = 1.0106e-05, No Iterations 3
bounding omega, min: -6409.53 max: 8.89187e+07 average: 968.78
smoothSolver:  Solving for k, Initial residual = 0.00315898, Final residual = 0.000197653, No Iterations 4
ExecutionTime = 9.12 s  ClockTime = 9 s

forceCoeffs forceCoeffs1 write:
    Cm    = 0.15526
    Cd    = 0.403049
    Cl    = 0.0837735
    Cl(f) = 0.197147
    Cl(r) = -0.113374

Time = 57

smoothSolver:  Solving for Ux, Initial residual = 0.00173987, Final residual = 0.000157416, No Iterations 10
smoothSolver:  Solving for Uy, Initial residual = 0.0376898, Final residual = 0.00313906, No Iterations 10
smoothSolver:  Solving for Uz, Initial residual = 0.0307703, Final residual = 0.00249447, No Iterations 10
GAMG:  Solving for p, Initial residual = 0.0152184, Final residual = 0.000125836, No Iterations 4
time step continuity errors : sum local = 0.000190036, global = -1.10752e-06, cumulative = -0.00018008
smoothSolver:  Solving for omega, Initial residual = 0.000107087, Final residual = 9.8809e-06, No Iterations 3
bounding omega, min: -8461.6 max: 8.89187e+07 average: 969.583
smoothSolver:  Solving for k, Initial residual = 0.00305623, Final residual = 0.000191706, No Iterations 4
ExecutionTime = 9.27 s  ClockTime = 9 s

forceCoeffs forceCoeffs1 write:
    Cm    = 0.154243
    Cd    = 0.401671
    Cl    = 0.0847821
    Cl(f) = 0.196634
    Cl(r) = -0.111852

Time = 58

smoothSolver:  Solving for Ux, Initial residual = 0.00168628, Final residual = 0.000153192, No Iterations 10
smoothSolver:  Solving for Uy, Initial residual = 0.0364796, Final residual = 0.00302326, No Iterations 10
smoothSolver:  Solving for Uz, Initial residual = 0.0298216, Final residual = 0.00239354, No Iterations 10
GAMG:  Solving for p, Initial residual = 0.0149167, Final residual = 0.000126494, No Iterations 4
time step continuity errors : sum local = 0.00019037, global = -1.23592e-07, cumulative = -0.000180204
smoothSolver:  Solving for omega, Initial residual = 0.000104502, Final residual = 9.65551e-06, No Iterations 3
bounding omega, min: -9304.81 max: 8.89187e+07 average: 970.453
smoothSolver:  Solving for k, Initial residual = 0.00297282, Final residual = 0.000186746, No Iterations 4
ExecutionTime = 9.42 s  ClockTime = 10 s

forceCoeffs forceCoeffs1 write:
    Cm    = 0.153397
    Cd    = 0.400267
    Cl    = 0.0852272
    Cl(f) = 0.19601
    Cl(r) = -0.110783

Time = 59

smoothSolver:  Solving for Ux, Initial residual = 0.00163964, Final residual = 0.000149392, No Iterations 10
smoothSolver:  Solving for Uy, Initial residual = 0.0354458, Final residual = 0.00290446, No Iterations 10
smoothSolver:  Solving for Uz, Initial residual = 0.0291178, Final residual = 0.00290534, No Iterations 9
GAMG:  Solving for p, Initial residual = 0.0146432, Final residual = 0.000122904, No Iterations 4
time step continuity errors : sum local = 0.000184499, global = 1.93808e-06, cumulative = -0.000178265
smoothSolver:  Solving for omega, Initial residual = 0.000101958, Final residual = 9.46258e-06, No Iterations 3
bounding omega, min: -9376.42 max: 8.89187e+07 average: 971.207
smoothSolver:  Solving for k, Initial residual = 0.00290486, Final residual = 0.000182441, No Iterations 4
ExecutionTime = 9.56 s  ClockTime = 10 s

forceCoeffs forceCoeffs1 write:
    Cm    = 0.152899
    Cd    = 0.398984
    Cl    = 0.0854442
    Cl(f) = 0.195621
    Cl(r) = -0.110177

Time = 60

smoothSolver:  Solving for Ux, Initial residual = 0.0015994, Final residual = 0.000145637, No Iterations 10
smoothSolver:  Solving for Uy, Initial residual = 0.0345946, Final residual = 0.00280348, No Iterations 10
smoothSolver:  Solving for Uz, Initial residual = 0.0285934, Final residual = 0.0028315, No Iterations 9
GAMG:  Solving for p, Initial residual = 0.0144986, Final residual = 0.000120724, No Iterations 4
time step continuity errors : sum local = 0.000180951, global = 3.64875e-06, cumulative = -0.000174617
smoothSolver:  Solving for omega, Initial residual = 9.86898e-05, Final residual = 9.27524e-06, No Iterations 3
bounding omega, min: -6897.23 max: 8.89187e+07 average: 971.804
smoothSolver:  Solving for k, Initial residual = 0.00284342, Final residual = 0.000178414, No Iterations 4
ExecutionTime = 9.71 s  ClockTime = 10 s

forceCoeffs forceCoeffs1 write:
    Cm    = 0.152759
    Cd    = 0.398008
    Cl    = 0.0853183
    Cl(f) = 0.195418
    Cl(r) = -0.110099

Time = 61

smoothSolver:  Solving for Ux, Initial residual = 0.00156489, Final residual = 0.000141837, No Iterations 10
smoothSolver:  Solving for Uy, Initial residual = 0.03386, Final residual = 0.00272362, No Iterations 10
smoothSolver:  Solving for Uz, Initial residual = 0.027902, Final residual = 0.00276266, No Iterations 9
GAMG:  Solving for p, Initial residual = 0.0143437, Final residual = 0.00011879, No Iterations 4
time step continuity errors : sum local = 0.000177889, global = 4.89252e-06, cumulative = -0.000169724
smoothSolver:  Solving for omega, Initial residual = 9.76964e-05, Final residual = 9.07733e-06, No Iterations 3
bounding omega, min: -7678.03 max: 8.89187e+07 average: 972.521
smoothSolver:  Solving for k, Initial residual = 0.00278285, Final residual = 0.000174341, No Iterations 4
ExecutionTime = 9.86 s  ClockTime = 10 s

forceCoeffs forceCoeffs1 write:
    Cm    = 0.152787
    Cd    = 0.397198
    Cl    = 0.084757
    Cl(f) = 0.195165
    Cl(r) = -0.110408

Time = 62

smoothSolver:  Solving for Ux, Initial residual = 0.00152587, Final residual = 0.000138077, No Iterations 10
smoothSolver:  Solving for Uy, Initial residual = 0.0332329, Final residual = 0.00266623, No Iterations 10
smoothSolver:  Solving for Uz, Initial residual = 0.0271635, Final residual = 0.00269342, No Iterations 9
GAMG:  Solving for p, Initial residual = 0.0141563, Final residual = 0.000115948, No Iterations 4
time step continuity errors : sum local = 0.000173519, global = 5.56484e-06, cumulative = -0.000164159
smoothSolver:  Solving for omega, Initial residual = 9.61553e-05, Final residual = 8.93244e-06, No Iterations 3
bounding omega, min: -4575.91 max: 8.89187e+07 average: 973.135
smoothSolver:  Solving for k, Initial residual = 0.00272358, Final residual = 0.000170606, No Iterations 4
ExecutionTime = 10 s  ClockTime = 10 s

forceCoeffs forceCoeffs1 write:
    Cm    = 0.152927
    Cd    = 0.396684
    Cl    = 0.0837775
    Cl(f) = 0.194816
    Cl(r) = -0.111038

Time = 63

smoothSolver:  Solving for Ux, Initial residual = 0.00148932, Final residual = 0.000134499, No Iterations 10
smoothSolver:  Solving for Uy, Initial residual = 0.0326578, Final residual = 0.00262918, No Iterations 10
smoothSolver:  Solving for Uz, Initial residual = 0.0264951, Final residual = 0.00263753, No Iterations 9
GAMG:  Solving for p, Initial residual = 0.0139325, Final residual = 0.000113534, No Iterations 4
time step continuity errors : sum local = 0.000169816, global = 5.53182e-06, cumulative = -0.000158628
smoothSolver:  Solving for omega, Initial residual = 9.48981e-05, Final residual = 8.82804e-06, No Iterations 3
bounding omega, min: -6954.68 max: 8.89187e+07 average: 973.833
smoothSolver:  Solving for k, Initial residual = 0.00266678, Final residual = 0.000167029, No Iterations 4
ExecutionTime = 10.16 s  ClockTime = 10 s

forceCoeffs forceCoeffs1 write:
    Cm    = 0.153021
    Cd    = 0.396275
    Cl    = 0.082653
    Cl(f) = 0.194347
    Cl(r) = -0.111694

Time = 64

smoothSolver:  Solving for Ux, Initial residual = 0.00145375, Final residual = 0.00013117, No Iterations 10
smoothSolver:  Solving for Uy, Initial residual = 0.0320922, Final residual = 0.00259531, No Iterations 10
smoothSolver:  Solving for Uz, Initial residual = 0.0259112, Final residual = 0.00206236, No Iterations 10
GAMG:  Solving for p, Initial residual = 0.0136711, Final residual = 0.000114462, No Iterations 4
time step continuity errors : sum local = 0.00017108, global = 5.16836e-06, cumulative = -0.000153459
smoothSolver:  Solving for omega, Initial residual = 9.38792e-05, Final residual = 8.75517e-06, No Iterations 3
bounding omega, min: -8984.22 max: 8.89187e+07 average: 974.043
smoothSolver:  Solving for k, Initial residual = 0.0026072, Final residual = 0.000163076, No Iterations 4
ExecutionTime = 10.3 s  ClockTime = 10 s

forceCoeffs forceCoeffs1 write:
    Cm    = 0.152918
    Cd    = 0.395766
    Cl    = 0.0816893
    Cl(f) = 0.193762
    Cl(r) = -0.112073

Time = 65

smoothSolver:  Solving for Ux, Initial residual = 0.00141947, Final residual = 0.000128139, No Iterations 10
smoothSolver:  Solving for Uy, Initial residual = 0.0315845, Final residual = 0.00256627, No Iterations 10
smoothSolver:  Solving for Uz, Initial residual = 0.0253577, Final residual = 0.00202374, No Iterations 10
GAMG:  Solving for p, Initial residual = 0.0133294, Final residual = 0.000112147, No Iterations 4
time step continuity errors : sum local = 0.000167507, global = 4.52278e-06, cumulative = -0.000148936
smoothSolver:  Solving for omega, Initial residual = 9.28423e-05, Final residual = 8.66885e-06, No Iterations 3
bounding omega, min: -4341.59 max: 8.89187e+07 average: 974.345
smoothSolver:  Solving for k, Initial residual = 0.0025493, Final residual = 0.000158899, No Iterations 4
ExecutionTime = 10.45 s  ClockTime = 11 s

forceCoeffs forceCoeffs1 write:
    Cm    = 0.15273
    Cd    = 0.395265
    Cl    = 0.0811986
    Cl(f) = 0.193329
    Cl(r) = -0.112131

Time = 66

smoothSolver:  Solving for Ux, Initial residual = 0.0013877, Final residual = 0.000125388, No Iterations 10
smoothSolver:  Solving for Uy, Initial residual = 0.0310384, Final residual = 0.00253469, No Iterations 10
smoothSolver:  Solving for Uz, Initial residual = 0.0250254, Final residual = 0.00200365, No Iterations 10
GAMG:  Solving for p, Initial residual = 0.013034, Final residual = 0.000109524, No Iterations 4
time step continuity errors : sum local = 0.000163564, global = 3.95307e-06, cumulative = -0.000144983
smoothSolver:  Solving for omega, Initial residual = 9.15659e-05, Final residual = 8.53553e-06, No Iterations 3
bounding omega, min: -7078.39 max: 8.89187e+07 average: 974.69
smoothSolver:  Solving for k, Initial residual = 0.00249641, Final residual = 0.000154945, No Iterations 4
ExecutionTime = 10.59 s  ClockTime = 11 s

forceCoeffs forceCoeffs1 write:
    Cm    = 0.152508
    Cd    = 0.394898
    Cl    = 0.0811152
    Cl(f) = 0.193066
    Cl(r) = -0.111951

Time = 67

smoothSolver:  Solving for Ux, Initial residual = 0.00136118, Final residual = 0.000122908, No Iterations 10
smoothSolver:  Solving for Uy, Initial residual = 0.0304928, Final residual = 0.00249665, No Iterations 10
smoothSolver:  Solving for Uz, Initial residual = 0.0248508, Final residual = 0.00199386, No Iterations 10
GAMG:  Solving for p, Initial residual = 0.0128283, Final residual = 0.000106775, No Iterations 4
time step continuity errors : sum local = 0.000159507, global = 3.49583e-06, cumulative = -0.000141488
smoothSolver:  Solving for omega, Initial residual = 9.05994e-05, Final residual = 8.40881e-06, No Iterations 3
bounding omega, min: -8845.49 max: 8.89187e+07 average: 974.511
smoothSolver:  Solving for k, Initial residual = 0.00245212, Final residual = 0.000151343, No Iterations 4
ExecutionTime = 10.74 s  ClockTime = 11 s

forceCoeffs forceCoeffs1 write:
    Cm    = 0.152363
    Cd    = 0.394861
    Cl    = 0.0815182
    Cl(f) = 0.193122
    Cl(r) = -0.111604

Time = 68

smoothSolver:  Solving for Ux, Initial residual = 0.0013377, Final residual = 0.000120664, No Iterations 10
smoothSolver:  Solving for Uy, Initial residual = 0.0300558, Final residual = 0.00245369, No Iterations 10
smoothSolver:  Solving for Uz, Initial residual = 0.0247932, Final residual = 0.00199136, No Iterations 10
GAMG:  Solving for p, Initial residual = 0.012653, Final residual = 0.000105435, No Iterations 4
time step continuity errors : sum local = 0.000157564, global = 3.31805e-06, cumulative = -0.000138169
smoothSolver:  Solving for omega, Initial residual = 8.91318e-05, Final residual = 8.25044e-06, No Iterations 3
bounding omega, min: -4350.05 max: 8.89187e+07 average: 974.627
smoothSolver:  Solving for k, Initial residual = 0.00240822, Final residual = 0.000147981, No Iterations 4
ExecutionTime = 10.88 s  ClockTime = 11 s

forceCoeffs forceCoeffs1 write:
    Cm    = 0.152307
    Cd    = 0.395267
    Cl    = 0.0821857
    Cl(f) = 0.1934
    Cl(r) = -0.111215

Time = 69

smoothSolver:  Solving for Ux, Initial residual = 0.00131466, Final residual = 0.000118669, No Iterations 10
smoothSolver:  Solving for Uy, Initial residual = 0.0297461, Final residual = 0.00240945, No Iterations 10
smoothSolver:  Solving for Uz, Initial residual = 0.0247844, Final residual = 0.00198761, No Iterations 10
GAMG:  Solving for p, Initial residual = 0.0124777, Final residual = 0.000105339, No Iterations 4
time step continuity errors : sum local = 0.000157501, global = 3.11949e-06, cumulative = -0.00013505
smoothSolver:  Solving for omega, Initial residual = 8.76945e-05, Final residual = 8.08841e-06, No Iterations 3
bounding omega, min: -7031.91 max: 8.89187e+07 average: 975.128
smoothSolver:  Solving for k, Initial residual = 0.00237159, Final residual = 0.000145162, No Iterations 4
ExecutionTime = 11.03 s  ClockTime = 11 s

forceCoeffs forceCoeffs1 write:
    Cm    = 0.152349
    Cd    = 0.396059
    Cl    = 0.0826178
    Cl(f) = 0.193658
    Cl(r) = -0.11104

Time = 70

smoothSolver:  Solving for Ux, Initial residual = 0.00129492, Final residual = 0.000116482, No Iterations 10
smoothSolver:  Solving for Uy, Initial residual = 0.029325, Final residual = 0.0023595, No Iterations 10
smoothSolver:  Solving for Uz, Initial residual = 0.0247861, Final residual = 0.00198231, No Iterations 10
GAMG:  Solving for p, Initial residual = 0.0122909, Final residual = 0.00010381, No Iterations 4
time step continuity errors : sum local = 0.000155317, global = 2.81324e-06, cumulative = -0.000132237
smoothSolver:  Solving for omega, Initial residual = 8.63542e-05, Final residual = 7.94025e-06, No Iterations 3
bounding omega, min: -8763.58 max: 8.89187e+07 average: 975.14
smoothSolver:  Solving for k, Initial residual = 0.00233101, Final residual = 0.000142623, No Iterations 4
ExecutionTime = 11.17 s  ClockTime = 11 s

forceCoeffs forceCoeffs1 write:
    Cm    = 0.152439
    Cd    = 0.396991
    Cl    = 0.0824047
    Cl(f) = 0.193642
    Cl(r) = -0.111237

Time = 71

smoothSolver:  Solving for Ux, Initial residual = 0.00127248, Final residual = 0.000113673, No Iterations 10
smoothSolver:  Solving for Uy, Initial residual = 0.0287655, Final residual = 0.00229552, No Iterations 10
smoothSolver:  Solving for Uz, Initial residual = 0.024703, Final residual = 0.00197094, No Iterations 10
GAMG:  Solving for p, Initial residual = 0.0121494, Final residual = 0.000100824, No Iterations 4
time step continuity errors : sum local = 0.000151052, global = 2.4288e-06, cumulative = -0.000129808
smoothSolver:  Solving for omega, Initial residual = 8.51951e-05, Final residual = 7.796e-06, No Iterations 3
bounding omega, min: -4650.33 max: 8.89187e+07 average: 975.923
smoothSolver:  Solving for k, Initial residual = 0.00229047, Final residual = 0.000140036, No Iterations 4
ExecutionTime = 11.31 s  ClockTime = 11 s

forceCoeffs forceCoeffs1 write:
    Cm    = 0.152642
    Cd    = 0.398023
    Cl    = 0.0815461
    Cl(f) = 0.193415
    Cl(r) = -0.111869

Time = 72

smoothSolver:  Solving for Ux, Initial residual = 0.00124861, Final residual = 0.000110405, No Iterations 10
smoothSolver:  Solving for Uy, Initial residual = 0.0280481, Final residual = 0.00222563, No Iterations 10
smoothSolver:  Solving for Uz, Initial residual = 0.0246096, Final residual = 0.00245724, No Iterations 9
GAMG:  Solving for p, Initial residual = 0.0120287, Final residual = 9.79214e-05, No Iterations 4
time step continuity errors : sum local = 0.000146953, global = 2.10103e-06, cumulative = -0.000127707
smoothSolver:  Solving for omega, Initial residual = 8.46088e-05, Final residual = 7.69287e-06, No Iterations 3
bounding omega, min: -7322.65 max: 8.89187e+07 average: 976.265
smoothSolver:  Solving for k, Initial residual = 0.00225772, Final residual = 0.000137856, No Iterations 4
ExecutionTime = 11.46 s  ClockTime = 12 s

forceCoeffs forceCoeffs1 write:
    Cm    = 0.152915
    Cd    = 0.399091
    Cl    = 0.080291
    Cl(f) = 0.193061
    Cl(r) = -0.11277

Time = 73

smoothSolver:  Solving for Ux, Initial residual = 0.00122251, Final residual = 0.000106849, No Iterations 10
smoothSolver:  Solving for Uy, Initial residual = 0.0273211, Final residual = 0.00271155, No Iterations 9
smoothSolver:  Solving for Uz, Initial residual = 0.0245745, Final residual = 0.0024513, No Iterations 9
GAMG:  Solving for p, Initial residual = 0.0119502, Final residual = 9.92508e-05, No Iterations 4
time step continuity errors : sum local = 0.000149198, global = 1.82974e-06, cumulative = -0.000125877
smoothSolver:  Solving for omega, Initial residual = 8.39357e-05, Final residual = 7.57803e-06, No Iterations 3
bounding omega, min: -9060.92 max: 8.89187e+07 average: 976.849
smoothSolver:  Solving for k, Initial residual = 0.00222998, Final residual = 0.000136246, No Iterations 4
ExecutionTime = 11.6 s  ClockTime = 12 s

forceCoeffs forceCoeffs1 write:
    Cm    = 0.153191
    Cd    = 0.40013
    Cl    = 0.0790278
    Cl(f) = 0.192705
    Cl(r) = -0.113678

Time = 74

smoothSolver:  Solving for Ux, Initial residual = 0.00119415, Final residual = 0.000103715, No Iterations 10
smoothSolver:  Solving for Uy, Initial residual = 0.0267067, Final residual = 0.00263782, No Iterations 9
smoothSolver:  Solving for Uz, Initial residual = 0.0243874, Final residual = 0.00242766, No Iterations 9
GAMG:  Solving for p, Initial residual = 0.0119097, Final residual = 0.000101412, No Iterations 4
time step continuity errors : sum local = 0.000152647, global = 1.51024e-06, cumulative = -0.000124367
smoothSolver:  Solving for omega, Initial residual = 8.31296e-05, Final residual = 7.49038e-06, No Iterations 3
bounding omega, min: -4594.11 max: 8.89187e+07 average: 977.807
smoothSolver:  Solving for k, Initial residual = 0.00221165, Final residual = 0.000135163, No Iterations 4
ExecutionTime = 11.74 s  ClockTime = 12 s

forceCoeffs forceCoeffs1 write:
    Cm    = 0.153416
    Cd    = 0.401013
    Cl    = 0.0779186
    Cl(f) = 0.192375
    Cl(r) = -0.114456

Time = 75

smoothSolver:  Solving for Ux, Initial residual = 0.0011649, Final residual = 0.000100725, No Iterations 10
smoothSolver:  Solving for Uy, Initial residual = 0.0261619, Final residual = 0.00256821, No Iterations 9
smoothSolver:  Solving for Uz, Initial residual = 0.0240792, Final residual = 0.00238603, No Iterations 9
GAMG:  Solving for p, Initial residual = 0.0118543, Final residual = 0.000102736, No Iterations 4
time step continuity errors : sum local = 0.000154783, global = 1.19631e-06, cumulative = -0.000123171
smoothSolver:  Solving for omega, Initial residual = 8.26252e-05, Final residual = 7.44903e-06, No Iterations 3
bounding omega, min: -7396.97 max: 8.89187e+07 average: 978.707
[...]

Time = 81

smoothSolver:  Solving for Ux, Initial residual = 0.00106238, Final residual = 8.8159e-05, No Iterations 10
smoothSolver:  Solving for Uy, Initial residual = 0.0252553, Final residual = 0.00240249, No Iterations 9
smoothSolver:  Solving for Uz, Initial residual = 0.0232215, Final residual = 0.00219363, No Iterations 9
GAMG:  Solving for p, Initial residual = 0.0112674, Final residual = 9.72327e-05, No Iterations 4
time step continuity errors : sum local = 0.000146059, global = 2.77813e-06, cumulative = -0.000114829
smoothSolver:  Solving for omega, Initial residual = 7.83078e-05, Final residual = 7.1015e-06, No Iterations 3
bounding omega, min: -6945.52 max: 8.89187e+07 average: 981.594
smoothSolver:  Solving for k, Initial residual = 0.00218119, Final residual = 0.000134936, No Iterations 4
ExecutionTime = 12.74 s  ClockTime = 13 s

forceCoeffs forceCoeffs1 write:
    Cm    = 0.15432
    Cd    = 0.404898
    Cl    = 0.0748014
    Cl(f) = 0.19172
    Cl(r) = -0.116919

Time = 82

smoothSolver:  Solving for Ux, Initial residual = 0.00104495, Final residual = 8.65751e-05, No Iterations 10
smoothSolver:  Solving for Uy, Initial residual = 0.02487, Final residual = 0.00236803, No Iterations 9
smoothSolver:  Solving for Uz, Initial residual = 0.0229528, Final residual = 0.00216521, No Iterations 9
GAMG:  Solving for p, Initial residual = 0.0111106, Final residual = 9.5303e-05, No Iterations 4
time step continuity errors : sum local = 0.000143224, global = 2.1584e-06, cumulative = -0.00011267
smoothSolver:  Solving for omega, Initial residual = 7.73823e-05, Final residual = 7.0067e-06, No Iterations 3
bounding omega, min: -8604.69 max: 8.89187e+07 average: 981.184
smoothSolver:  Solving for k, Initial residual = 0.0021668, Final residual = 0.000134433, No Iterations 4
ExecutionTime = 12.88 s  ClockTime = 13 s

forceCoeffs forceCoeffs1 write:
    Cm    = 0.153965
    Cd    = 0.404802
    Cl    = 0.0752158
    Cl(f) = 0.191573
    Cl(r) = -0.116358

Time = 83

smoothSolver:  Solving for Ux, Initial residual = 0.00102198, Final residual = 8.50437e-05, No Iterations 10
smoothSolver:  Solving for Uy, Initial residual = 0.024234, Final residual = 0.00231232, No Iterations 9
smoothSolver:  Solving for Uz, Initial residual = 0.0225051, Final residual = 0.0021154, No Iterations 9
GAMG:  Solving for p, Initial residual = 0.010898, Final residual = 9.06075e-05, No Iterations 4
time step continuity errors : sum local = 0.000136247, global = 4.82467e-07, cumulative = -0.000112188
smoothSolver:  Solving for omega, Initial residual = 7.67006e-05, Final residual = 6.93005e-06, No Iterations 3
bounding omega, min: -4294.91 max: 8.89187e+07 average: 981.866
smoothSolver:  Solving for k, Initial residual = 0.00215456, Final residual = 0.000133632, No Iterations 4
ExecutionTime = 13.02 s  ClockTime = 13 s

forceCoeffs forceCoeffs1 write:
    Cm    = 0.153581
    Cd    = 0.404508
    Cl    = 0.0753625
    Cl(f) = 0.191262
    Cl(r) = -0.115899

Time = 84

smoothSolver:  Solving for Ux, Initial residual = 0.000997554, Final residual = 8.35426e-05, No Iterations 10
smoothSolver:  Solving for Uy, Initial residual = 0.0234993, Final residual = 0.00224859, No Iterations 9
smoothSolver:  Solving for Uz, Initial residual = 0.022003, Final residual = 0.00206301, No Iterations 9
GAMG:  Solving for p, Initial residual = 0.0106894, Final residual = 8.64195e-05, No Iterations 4
time step continuity errors : sum local = 0.000130001, global = -1.70993e-06, cumulative = -0.000113898
smoothSolver:  Solving for omega, Initial residual = 7.61101e-05, Final residual = 6.863e-06, No Iterations 3
bounding omega, min: -6941.14 max: 8.89187e+07 average: 981.94
smoothSolver:  Solving for k, Initial residual = 0.00214146, Final residual = 0.000132517, No Iterations 4
ExecutionTime = 13.17 s  ClockTime = 13 s

forceCoeffs forceCoeffs1 write:
    Cm    = 0.153121
    Cd    = 0.403993
    Cl    = 0.075044
    Cl(f) = 0.190643
    Cl(r) = -0.115599

Time = 85

smoothSolver:  Solving for Ux, Initial residual = 0.000979529, Final residual = 8.22574e-05, No Iterations 10
smoothSolver:  Solving for Uy, Initial residual = 0.0228419, Final residual = 0.00219208, No Iterations 9
smoothSolver:  Solving for Uz, Initial residual = 0.0215842, Final residual = 0.00202645, No Iterations 9
GAMG:  Solving for p, Initial residual = 0.0105303, Final residual = 8.63909e-05, No Iterations 4
time step continuity errors : sum local = 0.000129987, global = -3.41424e-06, cumulative = -0.000117312
smoothSolver:  Solving for omega, Initial residual = 7.52256e-05, Final residual = 6.78487e-06, No Iterations 3
bounding omega, min: -21090 max: 8.89187e+07 average: 981.578
smoothSolver:  Solving for k, Initial residual = 0.00212746, Final residual = 0.000131917, No Iterations 4
ExecutionTime = 13.31 s  ClockTime = 14 s

forceCoeffs forceCoeffs1 write:
    Cm    = 0.15271
    Cd    = 0.403379
    Cl    = 0.07444
    Cl(f) = 0.18993
    Cl(r) = -0.11549

Time = 86

smoothSolver:  Solving for Ux, Initial residual = 0.000967909, Final residual = 8.08429e-05, No Iterations 10
smoothSolver:  Solving for Uy, Initial residual = 0.0224436, Final residual = 0.00214642, No Iterations 9
smoothSolver:  Solving for Uz, Initial residual = 0.0213629, Final residual = 0.00200037, No Iterations 9
GAMG:  Solving for p, Initial residual = 0.0104014, Final residual = 8.70171e-05, No Iterations 4
time step continuity errors : sum local = 0.000130938, global = -3.80076e-06, cumulative = -0.000121113
smoothSolver:  Solving for omega, Initial residual = 7.46672e-05, Final residual = 6.72266e-06, No Iterations 3
bounding omega, min: -4243.92 max: 8.89187e+07 average: 982.085
smoothSolver:  Solving for k, Initial residual = 0.00212102, Final residual = 0.000131929, No Iterations 4
ExecutionTime = 13.45 s  ClockTime = 14 s

forceCoeffs forceCoeffs1 write:
    Cm    = 0.152391
    Cd    = 0.402856
    Cl    = 0.0738599
    Cl(f) = 0.189321
    Cl(r) = -0.115461

Time = 87

smoothSolver:  Solving for Ux, Initial residual = 0.000960118, Final residual = 7.92854e-05, No Iterations 10
smoothSolver:  Solving for Uy, Initial residual = 0.022338, Final residual = 0.0021138, No Iterations 9
smoothSolver:  Solving for Uz, Initial residual = 0.021303, Final residual = 0.00196727, No Iterations 9
GAMG:  Solving for p, Initial residual = 0.0103178, Final residual = 8.68492e-05, No Iterations 4
time step continuity errors : sum local = 0.000130696, global = -3.05786e-06, cumulative = -0.000124171
smoothSolver:  Solving for omega, Initial residual = 7.36984e-05, Final residual = 6.64061e-06, No Iterations 3
bounding omega, min: -14662.9 max: 8.89187e+07 average: 982.037
smoothSolver:  Solving for k, Initial residual = 0.00211716, Final residual = 0.00013211, No Iterations 4
ExecutionTime = 13.59 s  ClockTime = 14 s

forceCoeffs forceCoeffs1 write:
    Cm    = 0.152178
    Cd    = 0.402579
    Cl    = 0.073466
    Cl(f) = 0.188911
    Cl(r) = -0.115445

Time = 88

smoothSolver:  Solving for Ux, Initial residual = 0.000955599, Final residual = 7.78566e-05, No Iterations 10
smoothSolver:  Solving for Uy, Initial residual = 0.0222961, Final residual = 0.00208957, No Iterations 9
smoothSolver:  Solving for Uz, Initial residual = 0.0211579, Final residual = 0.0019295, No Iterations 9
GAMG:  Solving for p, Initial residual = 0.0102631, Final residual = 8.53112e-05, No Iterations 4
time step continuity errors : sum local = 0.000128354, global = -1.70958e-06, cumulative = -0.00012588
smoothSolver:  Solving for omega, Initial residual = 7.29933e-05, Final residual = 6.52366e-06, No Iterations 3
bounding omega, min: -8086.54 max: 8.89187e+07 average: 981.941
smoothSolver:  Solving for k, Initial residual = 0.00210891, Final residual = 0.000131663, No Iterations 4
ExecutionTime = 13.73 s  ClockTime = 14 s

forceCoeffs forceCoeffs1 write:
    Cm    = 0.152084
    Cd    = 0.402739
    Cl    = 0.0734499
    Cl(f) = 0.188809
    Cl(r) = -0.115359

Time = 89

smoothSolver:  Solving for Ux, Initial residual = 0.000947811, Final residual = 7.66319e-05, No Iterations 10
smoothSolver:  Solving for Uy, Initial residual = 0.0221399, Final residual = 0.00207034, No Iterations 9
smoothSolver:  Solving for Uz, Initial residual = 0.0207639, Final residual = 0.00188527, No Iterations 9
GAMG:  Solving for p, Initial residual = 0.0102357, Final residual = 8.29215e-05, No Iterations 4
time step continuity errors : sum local = 0.00012467, global = 1.63903e-07, cumulative = -0.000125716
smoothSolver:  Solving for omega, Initial residual = 7.22069e-05, Final residual = 6.42355e-06, No Iterations 3
bounding omega, min: -14482.3 max: 8.89187e+07 average: 982.124
smoothSolver:  Solving for k, Initial residual = 0.00209306, Final residual = 0.000130221, No Iterations 4
ExecutionTime = 13.88 s  ClockTime = 14 s

forceCoeffs forceCoeffs1 write:
    Cm    = 0.152162
    Cd    = 0.403347
    Cl    = 0.0739888
    Cl(f) = 0.189157
    Cl(r) = -0.115168

Time = 90

smoothSolver:  Solving for Ux, Initial residual = 0.000933467, Final residual = 7.549e-05, No Iterations 10
smoothSolver:  Solving for Uy, Initial residual = 0.0218015, Final residual = 0.00205159, No Iterations 9
smoothSolver:  Solving for Uz, Initial residual = 0.0201534, Final residual = 0.00183298, No Iterations 9
GAMG:  Solving for p, Initial residual = 0.0101894, Final residual = 8.23083e-05, No Iterations 4
time step continuity errors : sum local = 0.000123538, global = 1.88323e-06, cumulative = -0.000123833
smoothSolver:  Solving for omega, Initial residual = 7.17458e-05, Final residual = 6.33347e-06, No Iterations 3
bounding omega, min: -6673.81 max: 8.89187e+07 average: 982.327
smoothSolver:  Solving for k, Initial residual = 0.00206317, Final residual = 0.000127607, No Iterations 4
ExecutionTime = 14.02 s  ClockTime = 14 s

forceCoeffs forceCoeffs1 write:
    Cm    = 0.152359
    Cd    = 0.404269
    Cl    = 0.0750725
    Cl(f) = 0.189895
    Cl(r) = -0.114822

Time = 91

smoothSolver:  Solving for Ux, Initial residual = 0.000914569, Final residual = 7.44195e-05, No Iterations 10
smoothSolver:  Solving for Uy, Initial residual = 0.0213357, Final residual = 0.0020281, No Iterations 9
smoothSolver:  Solving for Uz, Initial residual = 0.0194046, Final residual = 0.00177409, No Iterations 9
GAMG:  Solving for p, Initial residual = 0.0100815, Final residual = 8.40092e-05, No Iterations 4
time step continuity errors : sum local = 0.000125798, global = 2.91831e-06, cumulative = -0.000120915
smoothSolver:  Solving for omega, Initial residual = 7.05715e-05, Final residual = 6.2338e-06, No Iterations 3
bounding omega, min: -11485.2 max: 8.89187e+07 average: 982.261
smoothSolver:  Solving for k, Initial residual = 0.00202383, Final residual = 0.00012451, No Iterations 4
ExecutionTime = 14.16 s  ClockTime = 14 s

forceCoeffs forceCoeffs1 write:
    Cm    = 0.152726
    Cd    = 0.405308
    Cl    = 0.0764806
    Cl(f) = 0.190966
    Cl(r) = -0.114486

Time = 92

smoothSolver:  Solving for Ux, Initial residual = 0.000894909, Final residual = 7.34675e-05, No Iterations 10
smoothSolver:  Solving for Uy, Initial residual = 0.0208208, Final residual = 0.00199643, No Iterations 9
smoothSolver:  Solving for Uz, Initial residual = 0.0187373, Final residual = 0.0017156, No Iterations 9
GAMG:  Solving for p, Initial residual = 0.00989768, Final residual = 8.51593e-05, No Iterations 4
time step continuity errors : sum local = 0.000127173, global = 3.01191e-06, cumulative = -0.000117903
smoothSolver:  Solving for omega, Initial residual = 6.96864e-05, Final residual = 6.1284e-06, No Iterations 3
bounding omega, min: -4601.13 max: 8.89187e+07 average: 982.085
smoothSolver:  Solving for k, Initial residual = 0.00197884, Final residual = 0.000121283, No Iterations 4
ExecutionTime = 14.31 s  ClockTime = 15 s

forceCoeffs forceCoeffs1 write:
    Cm    = 0.153241
    Cd    = 0.406291
    Cl    = 0.0779284
    Cl(f) = 0.192205
    Cl(r) = -0.114277

Time = 93

smoothSolver:  Solving for Ux, Initial residual = 0.000877267, Final residual = 7.26643e-05, No Iterations 10
smoothSolver:  Solving for Uy, Initial residual = 0.0204416, Final residual = 0.00196008, No Iterations 9
smoothSolver:  Solving for Uz, Initial residual = 0.0183176, Final residual = 0.00166315, No Iterations 9
GAMG:  Solving for p, Initial residual = 0.00969898, Final residual = 8.4822e-05, No Iterations 4
time step continuity errors : sum local = 0.000126324, global = 2.91671e-06, cumulative = -0.000114986
smoothSolver:  Solving for omega, Initial residual = 6.82762e-05, Final residual = 5.99953e-06, No Iterations 3
bounding omega, min: -6709.11 max: 8.89187e+07 average: 982.434
smoothSolver:  Solving for k, Initial residual = 0.00193222, Final residual = 0.000118124, No Iterations 4
ExecutionTime = 14.45 s  ClockTime = 15 s

forceCoeffs forceCoeffs1 write:
    Cm    = 0.153828
    Cd    = 0.407047
    Cl    = 0.0791655
    Cl(f) = 0.193411
    Cl(r) = -0.114246

Time = 94

smoothSolver:  Solving for Ux, Initial residual = 0.000862718, Final residual = 7.1752e-05, No Iterations 10
smoothSolver:  Solving for Uy, Initial residual = 0.0201326, Final residual = 0.0019241, No Iterations 9
smoothSolver:  Solving for Uz, Initial residual = 0.0179759, Final residual = 0.0016205, No Iterations 9
GAMG:  Solving for p, Initial residual = 0.00952987, Final residual = 8.33804e-05, No Iterations 4
time step continuity errors : sum local = 0.000123896, global = 2.89327e-06, cumulative = -0.000112093
smoothSolver:  Solving for omega, Initial residual = 6.69963e-05, Final residual = 5.8742e-06, No Iterations 3
bounding omega, min: -7967.83 max: 8.89187e+07 average: 982.878
smoothSolver:  Solving for k, Initial residual = 0.00188669, Final residual = 0.000115219, No Iterations 4
ExecutionTime = 14.6 s  ClockTime = 15 s

forceCoeffs forceCoeffs1 write:
    Cm    = 0.154276
    Cd    = 0.407447
    Cl    = 0.0801384
    Cl(f) = 0.194345
    Cl(r) = -0.114206

Time = 95

smoothSolver:  Solving for Ux, Initial residual = 0.000850296, Final residual = 7.06673e-05, No Iterations 10
smoothSolver:  Solving for Uy, Initial residual = 0.0198729, Final residual = 0.00189026, No Iterations 9
smoothSolver:  Solving for Uz, Initial residual = 0.0176511, Final residual = 0.0015901, No Iterations 9
GAMG:  Solving for p, Initial residual = 0.00939457, Final residual = 8.15088e-05, No Iterations 4
time step continuity errors : sum local = 0.000120923, global = 2.71318e-06, cumulative = -0.00010938
smoothSolver:  Solving for omega, Initial residual = 6.58206e-05, Final residual = 5.77362e-06, No Iterations 3
bounding omega, min: -10265.7 max: 8.89187e+07 average: 983.159
smoothSolver:  Solving for k, Initial residual = 0.00184585, Final residual = 0.00011254, No Iterations 4
ExecutionTime = 14.74 s  ClockTime = 15 s

forceCoeffs forceCoeffs1 write:
    Cm    = 0.154489
    Cd    = 0.407482
    Cl    = 0.0809296
    Cl(f) = 0.194953
    Cl(r) = -0.114024

Time = 96

smoothSolver:  Solving for Ux, Initial residual = 0.000840286, Final residual = 6.96217e-05, No Iterations 10
smoothSolver:  Solving for Uy, Initial residual = 0.0195909, Final residual = 0.00186045, No Iterations 9
smoothSolver:  Solving for Uz, Initial residual = 0.0173213, Final residual = 0.00156744, No Iterations 9
GAMG:  Solving for p, Initial residual = 0.00928814, Final residual = 7.91864e-05, No Iterations 4
time step continuity errors : sum local = 0.000117364, global = 2.28776e-06, cumulative = -0.000107092
smoothSolver:  Solving for omega, Initial residual = 6.52847e-05, Final residual = 5.68514e-06, No Iterations 3
bounding omega, min: -6797.34 max: 8.89187e+07 average: 983.364
smoothSolver:  Solving for k, Initial residual = 0.00181434, Final residual = 0.000110191, No Iterations 4
ExecutionTime = 14.88 s  ClockTime = 15 s

forceCoeffs forceCoeffs1 write:
    Cm    = 0.154459
    Cd    = 0.407287
    Cl    = 0.0814181
    Cl(f) = 0.195168
    Cl(r) = -0.11375

Time = 97

smoothSolver:  Solving for Ux, Initial residual = 0.000830564, Final residual = 6.87601e-05, No Iterations 10
smoothSolver:  Solving for Uy, Initial residual = 0.0193112, Final residual = 0.00183477, No Iterations 9
smoothSolver:  Solving for Uz, Initial residual = 0.0169889, Final residual = 0.00154703, No Iterations 9
GAMG:  Solving for p, Initial residual = 0.00921071, Final residual = 7.60461e-05, No Iterations 4
time step continuity errors : sum local = 0.000112639, global = 1.5543e-06, cumulative = -0.000105538
smoothSolver:  Solving for omega, Initial residual = 6.42727e-05, Final residual = 5.58677e-06, No Iterations 3
bounding omega, min: -8125.56 max: 8.89187e+07 average: 983.965
smoothSolver:  Solving for k, Initial residual = 0.00179017, Final residual = 0.000108276, No Iterations 4
ExecutionTime = 15.02 s  ClockTime = 15 s

forceCoeffs forceCoeffs1 write:
    Cm    = 0.154301
    Cd    = 0.406881
    Cl    = 0.0814917
    Cl(f) = 0.195047
    Cl(r) = -0.113555

Time = 98

smoothSolver:  Solving for Ux, Initial residual = 0.000820381, Final residual = 6.78535e-05, No Iterations 10
smoothSolver:  Solving for Uy, Initial residual = 0.0190637, Final residual = 0.00181332, No Iterations 9
smoothSolver:  Solving for Uz, Initial residual = 0.0166737, Final residual = 0.0015277, No Iterations 9
GAMG:  Solving for p, Initial residual = 0.00912608, Final residual = 7.3173e-05, No Iterations 4
time step continuity errors : sum local = 0.000108322, global = 4.07599e-07, cumulative = -0.00010513
smoothSolver:  Solving for omega, Initial residual = 6.37091e-05, Final residual = 5.50953e-06, No Iterations 3
bounding omega, min: -4468.73 max: 8.89187e+07 average: 984.484
smoothSolver:  Solving for k, Initial residual = 0.00177233, Final residual = 0.000107125, No Iterations 4
ExecutionTime = 15.17 s  ClockTime = 15 s

forceCoeffs forceCoeffs1 write:
    Cm    = 0.154062
    Cd    = 0.406277
    Cl    = 0.0811081
    Cl(f) = 0.194616
    Cl(r) = -0.113508

Time = 99

smoothSolver:  Solving for Ux, Initial residual = 0.000808986, Final residual = 6.6876e-05, No Iterations 10
smoothSolver:  Solving for Uy, Initial residual = 0.0188319, Final residual = 0.00180154, No Iterations 9
smoothSolver:  Solving for Uz, Initial residual = 0.0163487, Final residual = 0.00151269, No Iterations 9
GAMG:  Solving for p, Initial residual = 0.00903612, Final residual = 7.20709e-05, No Iterations 4
time step continuity errors : sum local = 0.000106634, global = -9.08727e-07, cumulative = -0.000106039
smoothSolver:  Solving for omega, Initial residual = 6.29175e-05, Final residual = 5.43512e-06, No Iterations 3
bounding omega, min: -19667.8 max: 8.89187e+07 average: 984.748
smoothSolver:  Solving for k, Initial residual = 0.00175909, Final residual = 0.000106246, No Iterations 4
ExecutionTime = 15.31 s  ClockTime = 16 s

forceCoeffs forceCoeffs1 write:
    Cm    = 0.153834
    Cd    = 0.4055
    Cl    = 0.080292
    Cl(f) = 0.19398
    Cl(r) = -0.113688

Time = 100

smoothSolver:  Solving for Ux, Initial residual = 0.00079521, Final residual = 6.60195e-05, No Iterations 10
smoothSolver:  Solving for Uy, Initial residual = 0.0185977, Final residual = 0.00180059, No Iterations 9
smoothSolver:  Solving for Uz, Initial residual = 0.016034, Final residual = 0.00150164, No Iterations 9
GAMG:  Solving for p, Initial residual = 0.00892149, Final residual = 7.30224e-05, No Iterations 4
time step continuity errors : sum local = 0.000107977, global = -1.70771e-06, cumulative = -0.000107747
smoothSolver:  Solving for omega, Initial residual = 6.18046e-05, Final residual = 5.34378e-06, No Iterations 3
bounding omega, min: -4620.57 max: 8.89187e+07 average: 985.774
smoothSolver:  Solving for k, Initial residual = 0.0017404, Final residual = 0.000105113, No Iterations 4
ExecutionTime = 15.46 s  ClockTime = 16 s

forceCoeffs forceCoeffs1 write:
    Cm    = 0.153621
    Cd    = 0.404627
    Cl    = 0.0792315
    Cl(f) = 0.193237
    Cl(r) = -0.114005

End

Finalising parallel run
