/*---------------------------------------------------------------------------*\
  =========                 |
  \\      /  F ield         | OpenFOAM: The Open Source CFD Toolbox
   \\    /   O peration     | Website:  https://openfoam.org
    \\  /    A nd           | Version:  7
     \\/     M anipulation  |
\*---------------------------------------------------------------------------*/
Build  : 7
Exec   : decomposePar
Date   : Oct 14 2020
Time   : 15:50:21
Host   : "cpu-p-288"
PID    : 219594
I/O    : uncollated
Case   : /rds/user/hpcbras1/hpc-work/csd3/cclake-ib-gcc9-ompi3-ucx/openfoam/Openfoam_Mbike_csd3_cclake_ib_gcc9_ompi3_ucx_448_56
nProcs : 1
sigFpe : Enabling floating point exception trapping (FOAM_SIGFPE).
fileModificationChecking : Monitoring run-time modified files using timeStampMaster (fileModificationSkew 10)
allowSystemOperations : Allowing user-supplied system call operations

// * * * * * * * * * * * * * * * * * * * * * * * * * * * * * * * * * * * * * //
Create time



Decomposing mesh region0

Create mesh

Calculating distribution of cells
 Foam::decompositionMethod::New 
{
    numberOfSubdomains 448;
    method          scotch;
    simpleCoeffs
    {
        n               ( 4 1 1 );
        delta           0.001;
    }
    hierarchicalCoeffs
    {
        n               ( 3 2 1 );
        delta           0.001;
        order           xyz;
    }
    manualCoeffs
    {
        dataFile        "cellDecomposition";
    }
}

Selecting decompositionMethod scotch

Finished decomposition in 0.07 s

Calculating original mesh data

Distributing cells to processors

Distributing faces to processors

Distributing points to processors

Constructing processor meshes

Processor 0
    Number of cells = 22
    Number of faces shared with processor 1 = 5
    Number of faces shared with processor 2 = 10
    Number of faces shared with processor 4 = 11
    Number of faces shared with processor 9 = 3
    Number of faces shared with processor 182 = 3
    Number of faces shared with processor 185 = 12
    Number of faces shared with processor 186 = 2
    Number of faces shared with processor 187 = 2
    Number of processor patches = 8
    Number of processor faces = 48
    Number of boundary faces = 14

Processor 1
    Number of cells = 23
    Number of faces shared with processor 0 = 5
    Number of faces shared with processor 2 = 13
    Number of faces shared with processor 4 = 6
    Number of faces shared with processor 5 = 8
    Number of faces shared with processor 6 = 4
    Number of faces shared with processor 7 = 1
    Number of faces shared with processor 13 = 5
    Number of faces shared with processor 15 = 5
    Number of faces shared with processor 16 = 1
    Number of processor patches = 9
    Number of processor faces = 48
    Number of boundary faces = 8

Processor 2
    Number of cells = 23
    Number of faces shared with processor 0 = 10
    Number of faces shared with processor 1 = 13
    Number of faces shared with processor 4 = 1
    Number of faces shared with processor 7 = 2
    Number of faces shared with processor 9 = 8
    Number of faces shared with processor 16 = 6
    Number of processor patches = 6
    Number of processor faces = 40
    Number of boundary faces = 16

Processor 3
    Number of cells = 23
    Number of faces shared with processor 4 = 10
    Number of faces shared with processor 5 = 5
    Number of faces shared with processor 6 = 8
    Number of faces shared with processor 10 = 7
    Number of faces shared with processor 12 = 1
    Number of faces shared with processor 42 = 6
    Number of faces shared with processor 44 = 4
    Number of faces shared with processor 182 = 1
    Number of faces shared with processor 213 = 4
    Number of faces shared with processor 215 = 4
    Number of processor patches = 10
    Number of processor faces = 50
    Number of boundary faces = 6

Processor 4
    Number of cells = 23
    Number of faces shared with processor 0 = 11
    Number of faces shared with processor 1 = 6
    Number of faces shared with processor 2 = 1
    Number of faces shared with processor 3 = 10
    Number of faces shared with processor 5 = 3
    Number of faces shared with processor 6 = 1
    Number of faces shared with processor 10 = 1
    Number of faces shared with processor 12 = 5
    Number of faces shared with processor 182 = 9
    Number of faces shared with processor 187 = 1
    Number of faces shared with processor 213 = 2
    Number of faces shared with processor 215 = 1
    Number of processor patches = 12
    Number of processor faces = 51
    Number of boundary faces = 7

Processor 5
    Number of cells = 23
    Number of faces shared with processor 1 = 8
    Number of faces shared with processor 3 = 5
    Number of faces shared with processor 4 = 3
    Number of faces shared with processor 6 = 12
    Number of faces shared with processor 15 = 2
    Number of faces shared with processor 18 = 6
    Number of faces shared with processor 43 = 2
    Number of faces shared with processor 44 = 2
    Number of processor patches = 8
    Number of processor faces = 40
    Number of boundary faces = 12

Processor 6
    Number of cells = 23
    Number of faces shared with processor 1 = 4
    Number of faces shared with processor 3 = 8
    Number of faces shared with processor 4 = 1
    Number of faces shared with processor 5 = 12
    Number of faces shared with processor 10 = 4
    Number of faces shared with processor 11 = 7
    Number of faces shared with processor 13 = 5
    Number of faces shared with processor 18 = 5
    Number of faces shared with processor 20 = 1
    Number of faces shared with processor 22 = 1
    Number of faces shared with processor 44 = 7
    Number of faces shared with processor 49 = 3
    Number of processor patches = 12
    Number of processor faces = 58
    Number of boundary faces = 0

Processor 7
    Number of cells = 22
    Number of faces shared with processor 1 = 1
    Number of faces shared with processor 2 = 2
    Number of faces shared with processor 8 = 8
    Number of faces shared with processor 9 = 5
    Number of faces shared with processor 13 = 10
    Number of faces shared with processor 15 = 1
    Number of faces shared with processor 16 = 3
    Number of faces shared with processor 22 = 1
    Number of faces shared with processor 26 = 7
    Number of faces shared with processor 27 = 5
    Number of faces shared with processor 85 = 3
    Number of processor patches = 11
    Number of processor faces = 46
    Number of boundary faces = 8

Processor 8
    Number of cells = 23
    Number of faces shared with processor 7 = 8
    Number of faces shared with processor 9 = 12
    Number of faces shared with processor 12 = 5
    Number of faces shared with processor 13 = 4
    Number of faces shared with processor 171 = 9
    Number of faces shared with processor 84 = 9
    Number of faces shared with processor 85 = 2
    Number of processor patches = 7
    Number of processor faces = 49
    Number of boundary faces = 7

Processor 9
    Number of cells = 23
    Number of faces shared with processor 0 = 3
    Number of faces shared with processor 2 = 8
    Number of faces shared with processor 7 = 5
    Number of faces shared with processor 8 = 12
    Number of faces shared with processor 12 = 5
    Number of faces shared with processor 13 = 5
    Number of faces shared with processor 187 = 6
    Number of processor patches = 7
    Number of processor faces = 44
    Number of boundary faces = 8

Processor 10
    Number of cells = 23
    Number of faces shared with processor 3 = 7
    Number of faces shared with processor 4 = 1
    Number of faces shared with processor 6 = 4
    Number of faces shared with processor 11 = 13
    Number of faces shared with processor 12 = 8
    Number of faces shared with processor 169 = 8
    Number of faces shared with processor 42 = 2
    Number of faces shared with processor 50 = 6
    Number of faces shared with processor 51 = 2
    Number of faces shared with processor 65 = 2
    Number of faces shared with processor 199 = 3
    Number of faces shared with processor 200 = 1
    Number of faces shared with processor 215 = 1
    Number of faces shared with processor 89 = 3
    Number of faces shared with processor 90 = 1
    Number of processor patches = 15
    Number of processor faces = 62
    Number of boundary faces = 0

Processor 11
    Number of cells = 23
    Number of faces shared with processor 6 = 7
    Number of faces shared with processor 10 = 13
    Number of faces shared with processor 12 = 3
    Number of faces shared with processor 13 = 6
    Number of faces shared with processor 22 = 3
    Number of faces shared with processor 23 = 6
    Number of faces shared with processor 49 = 1
    Number of faces shared with processor 50 = 1
    Number of faces shared with processor 51 = 4
    Number of faces shared with processor 88 = 4
    Number of faces shared with processor 89 = 3
    Number of faces shared with processor 90 = 1
    Number of processor patches = 12
    Number of processor faces = 52
    Number of boundary faces = 0

Processor 12
    Number of cells = 23
    Number of faces shared with processor 3 = 1
    Number of faces shared with processor 4 = 5
    Number of faces shared with processor 8 = 5
    Number of faces shared with processor 9 = 5
    Number of faces shared with processor 10 = 8
    Number of faces shared with processor 11 = 3
    Number of faces shared with processor 13 = 10
    Number of faces shared with processor 169 = 4
    Number of faces shared with processor 171 = 6
    Number of faces shared with processor 182 = 1
    Number of faces shared with processor 187 = 4
    Number of faces shared with processor 84 = 2
    Number of faces shared with processor 90 = 2
    Number of processor patches = 13
    Number of processor faces = 56
    Number of boundary faces = 0

Processor 13
    Number of cells = 23
    Number of faces shared with processor 1 = 5
    Number of faces shared with processor 6 = 5
    Number of faces shared with processor 7 = 10
    Number of faces shared with processor 8 = 4
    Number of faces shared with processor 9 = 5
    Number of faces shared with processor 11 = 6
    Number of faces shared with processor 12 = 10
    Number of faces shared with processor 22 = 7
    Number of faces shared with processor 26 = 2
    Number of faces shared with processor 27 = 2
    Number of faces shared with processor 84 = 1
    Number of faces shared with processor 85 = 3
    Number of faces shared with processor 88 = 2
    Number of processor patches = 13
    Number of processor faces = 62
    Number of boundary faces = 0

Processor 14
    Number of cells = 22
    Number of faces shared with processor 15 = 3
    Number of faces shared with processor 16 = 10
    Number of faces shared with processor 20 = 11
    Number of faces shared with processor 24 = 6
    Number of faces shared with processor 26 = 1
    Number of faces shared with processor 245 = 8
    Number of processor patches = 6
    Number of processor faces = 39
    Number of boundary faces = 13

Processor 15
    Number of cells = 23
    Number of faces shared with processor 1 = 5
    Number of faces shared with processor 5 = 2
    Number of faces shared with processor 7 = 1
    Number of faces shared with processor 14 = 3
    Number of faces shared with processor 16 = 11
    Number of faces shared with processor 17 = 1
    Number of faces shared with processor 18 = 5
    Number of faces shared with processor 20 = 11
    Number of faces shared with processor 26 = 4
    Number of processor patches = 9
    Number of processor faces = 43
    Number of boundary faces = 9

Processor 16
    Number of cells = 23
    Number of faces shared with processor 1 = 1
    Number of faces shared with processor 2 = 6
    Number of faces shared with processor 7 = 3
    Number of faces shared with processor 14 = 10
    Number of faces shared with processor 15 = 11
    Number of faces shared with processor 26 = 6
    Number of processor patches = 6
    Number of processor faces = 37
    Number of boundary faces = 19

Processor 17
    Number of cells = 23
    Number of faces shared with processor 15 = 1
    Number of faces shared with processor 18 = 13
    Number of faces shared with processor 19 = 12
    Number of faces shared with processor 20 = 4
    Number of faces shared with processor 21 = 2
    Number of faces shared with processor 22 = 4
    Number of faces shared with processor 23 = 2
    Number of faces shared with processor 25 = 1
    Number of faces shared with processor 28 = 4
    Number of faces shared with processor 29 = 4
    Number of processor patches = 10
    Number of processor faces = 47
    Number of boundary faces = 5

Processor 18
    Number of cells = 23
    Number of faces shared with processor 5 = 6
    Number of faces shared with processor 6 = 5
    Number of faces shared with processor 15 = 5
    Number of faces shared with processor 17 = 13
    Number of faces shared with processor 20 = 2
    Number of faces shared with processor 22 = 4
    Number of faces shared with processor 23 = 4
    Number of faces shared with processor 28 = 4
    Number of faces shared with processor 43 = 3
    Number of faces shared with processor 49 = 1
    Number of processor patches = 10
    Number of processor faces = 47
    Number of boundary faces = 7

Processor 19
    Number of cells = 23
    Number of faces shared with processor 17 = 12
    Number of faces shared with processor 20 = 8
    Number of faces shared with processor 21 = 6
    Number of faces shared with processor 25 = 2
    Number of faces shared with processor 29 = 8
    Number of faces shared with processor 250 = 7
    Number of faces shared with processor 251 = 4
    Number of processor patches = 7
    Number of processor faces = 47
    Number of boundary faces = 5

Processor 20
    Number of cells = 23
    Number of faces shared with processor 6 = 1
    Number of faces shared with processor 14 = 11
    Number of faces shared with processor 15 = 11
    Number of faces shared with processor 17 = 4
    Number of faces shared with processor 18 = 2
    Number of faces shared with processor 19 = 8
    Number of faces shared with processor 22 = 3
    Number of faces shared with processor 25 = 6
    Number of faces shared with processor 247 = 2
    Number of faces shared with processor 251 = 6
    Number of processor patches = 10
    Number of processor faces = 54
    Number of boundary faces = 8

Processor 21
    Number of cells = 22
    Number of faces shared with processor 17 = 2
    Number of faces shared with processor 19 = 6
    Number of faces shared with processor 22 = 4
    Number of faces shared with processor 23 = 9
    Number of faces shared with processor 25 = 6
    Number of faces shared with processor 35 = 2
    Number of faces shared with processor 37 = 6
    Number of faces shared with processor 108 = 6
    Number of faces shared with processor 242 = 9
    Number of processor patches = 9
    Number of processor faces = 50
    Number of boundary faces = 0

Processor 22
    Number of cells = 23
    Number of faces shared with processor 6 = 1
    Number of faces shared with processor 7 = 1
    Number of faces shared with processor 11 = 3
    Number of faces shared with processor 13 = 7
    Number of faces shared with processor 17 = 4
    Number of faces shared with processor 18 = 4
    Number of faces shared with processor 20 = 3
    Number of faces shared with processor 21 = 4
    Number of faces shared with processor 23 = 13
    Number of faces shared with processor 25 = 6
    Number of faces shared with processor 26 = 5
    Number of faces shared with processor 27 = 3
    Number of faces shared with processor 88 = 2
    Number of faces shared with processor 110 = 2
    Number of processor patches = 14
    Number of processor faces = 58
    Number of boundary faces = 0

Processor 23
    Number of cells = 23
    Number of faces shared with processor 11 = 6
    Number of faces shared with processor 17 = 2
    Number of faces shared with processor 18 = 4
    Number of faces shared with processor 21 = 9
    Number of faces shared with processor 22 = 13
    Number of faces shared with processor 25 = 1
    Number of faces shared with processor 35 = 6
    Number of faces shared with processor 37 = 1
    Number of faces shared with processor 49 = 1
    Number of faces shared with processor 51 = 2
    Number of faces shared with processor 88 = 2
    Number of faces shared with processor 108 = 3
    Number of faces shared with processor 111 = 6
    Number of processor patches = 13
    Number of processor faces = 56
    Number of boundary faces = 0

Processor 24
    Number of cells = 23
    Number of faces shared with processor 14 = 6
    Number of faces shared with processor 25 = 10
    Number of faces shared with processor 26 = 6
    Number of faces shared with processor 27 = 6
    Number of faces shared with processor 105 = 1
    Number of faces shared with processor 107 = 4
    Number of faces shared with processor 238 = 7
    Number of faces shared with processor 239 = 1
    Number of faces shared with processor 245 = 3
    Number of processor patches = 9
    Number of processor faces = 44
    Number of boundary faces = 8

Processor 25
    Number of cells = 23
    Number of faces shared with processor 17 = 1
    Number of faces shared with processor 19 = 2
    Number of faces shared with processor 20 = 6
    Number of faces shared with processor 21 = 6
    Number of faces shared with processor 22 = 6
    Number of faces shared with processor 23 = 1
    Number of faces shared with processor 24 = 10
    Number of faces shared with processor 26 = 4
    Number of faces shared with processor 27 = 5
    Number of faces shared with processor 105 = 3
    Number of faces shared with processor 108 = 3
    Number of faces shared with processor 238 = 1
    Number of faces shared with processor 239 = 1
    Number of faces shared with processor 241 = 5
    Number of faces shared with processor 251 = 2
    Number of processor patches = 15
    Number of processor faces = 56
    Number of boundary faces = 0

Processor 26
    Number of cells = 23
    Number of faces shared with processor 7 = 7
    Number of faces shared with processor 13 = 2
    Number of faces shared with processor 14 = 1
    Number of faces shared with processor 15 = 4
    Number of faces shared with processor 16 = 6
    Number of faces shared with processor 22 = 5
    Number of faces shared with processor 24 = 6
    Number of faces shared with processor 25 = 4
    Number of faces shared with processor 27 = 13
    Number of processor patches = 9
    Number of processor faces = 48
    Number of boundary faces = 6

Processor 27
    Number of cells = 23
    Number of faces shared with processor 7 = 5
    Number of faces shared with processor 13 = 2
    Number of faces shared with processor 22 = 3
    Number of faces shared with processor 24 = 6
    Number of faces shared with processor 25 = 5
    Number of faces shared with processor 26 = 13
    Number of faces shared with processor 106 = 9
    Number of faces shared with processor 107 = 3
    Number of processor patches = 8
    Number of processor faces = 46
    Number of boundary faces = 6

Processor 28
    Number of cells = 22
    Number of faces shared with processor 17 = 4
    Number of faces shared with processor 18 = 4
    Number of faces shared with processor 29 = 7
    Number of faces shared with processor 30 = 8
    Number of faces shared with processor 33 = 6
    Number of faces shared with processor 35 = 6
    Number of faces shared with processor 43 = 8
    Number of faces shared with processor 49 = 3
    Number of processor patches = 8
    Number of processor faces = 46
    Number of boundary faces = 4

Processor 29
    Number of cells = 23
    Number of faces shared with processor 273 = 8
    Number of faces shared with processor 17 = 4
    Number of faces shared with processor 19 = 8
    Number of faces shared with processor 28 = 7
    Number of faces shared with processor 30 = 14
    Number of faces shared with processor 35 = 1
    Number of faces shared with processor 37 = 4
    Number of processor patches = 7
    Number of processor faces = 46
    Number of boundary faces = 6

Processor 30
    Number of cells = 23
    Number of faces shared with processor 273 = 3
    Number of faces shared with processor 275 = 2
    Number of faces shared with processor 279 = 2
    Number of faces shared with processor 28 = 8
    Number of faces shared with processor 29 = 14
    Number of faces shared with processor 31 = 18
    Number of faces shared with processor 33 = 5
    Number of faces shared with processor 37 = 4
    Number of faces shared with processor 43 = 2
    Number of processor patches = 9
    Number of processor faces = 58
    Number of boundary faces = 10

Processor 31
    Number of cells = 23
    Number of faces shared with processor 279 = 5
    Number of faces shared with processor 30 = 18
    Number of faces shared with processor 32 = 13
    Number of faces shared with processor 33 = 10
    Number of faces shared with processor 34 = 4
    Number of faces shared with processor 37 = 3
    Number of faces shared with processor 38 = 4
    Number of processor patches = 7
    Number of processor faces = 57
    Number of boundary faces = 5

Processor 32
    Number of cells = 23
    Number of faces shared with processor 278 = 7
    Number of faces shared with processor 279 = 5
    Number of faces shared with processor 31 = 13
    Number of faces shared with processor 34 = 8
    Number of faces shared with processor 38 = 6
    Number of processor patches = 5
    Number of processor faces = 39
    Number of boundary faces = 13

Processor 33
    Number of cells = 23
    Number of faces shared with processor 28 = 6
    Number of faces shared with processor 30 = 5
    Number of faces shared with processor 31 = 10
    Number of faces shared with processor 34 = 10
    Number of faces shared with processor 35 = 2
    Number of faces shared with processor 40 = 4
    Number of faces shared with processor 43 = 2
    Number of faces shared with processor 45 = 3
    Number of faces shared with processor 46 = 4
    Number of faces shared with processor 49 = 2
    Number of faces shared with processor 52 = 1
    Number of processor patches = 11
    Number of processor faces = 49
    Number of boundary faces = 5

Processor 34
    Number of cells = 23
    Number of faces shared with processor 31 = 4
    Number of faces shared with processor 32 = 8
    Number of faces shared with processor 33 = 10
    Number of faces shared with processor 38 = 2
    Number of faces shared with processor 40 = 4
    Number of faces shared with processor 46 = 5
    Number of faces shared with processor 52 = 2
    Number of processor patches = 7
    Number of processor faces = 35
    Number of boundary faces = 17

Processor 35
    Number of cells = 22
    Number of faces shared with processor 21 = 2
    Number of faces shared with processor 23 = 6
    Number of faces shared with processor 28 = 6
    Number of faces shared with processor 29 = 1
    Number of faces shared with processor 33 = 2
    Number of faces shared with processor 36 = 2
    Number of faces shared with processor 37 = 12
    Number of faces shared with processor 40 = 8
    Number of faces shared with processor 41 = 1
    Number of faces shared with processor 49 = 4
    Number of faces shared with processor 51 = 6
    Number of faces shared with processor 59 = 2
    Number of faces shared with processor 61 = 2
    Number of processor patches = 13
    Number of processor faces = 54
    Number of boundary faces = 0

Processor 36
    Number of cells = 23
    Number of faces shared with processor 266 = 3
    Number of faces shared with processor 272 = 6
    Number of faces shared with processor 35 = 2
    Number of faces shared with processor 37 = 13
    Number of faces shared with processor 38 = 7
    Number of faces shared with processor 39 = 8
    Number of faces shared with processor 40 = 3
    Number of faces shared with processor 41 = 3
    Number of faces shared with processor 56 = 1
    Number of faces shared with processor 60 = 2
    Number of faces shared with processor 61 = 4
    Number of faces shared with processor 62 = 6
    Number of processor patches = 12
    Number of processor faces = 58
    Number of boundary faces = 0

Processor 37
    Number of cells = 23
    Number of faces shared with processor 266 = 6
    Number of faces shared with processor 268 = 2
    Number of faces shared with processor 21 = 6
    Number of faces shared with processor 23 = 1
    Number of faces shared with processor 29 = 4
    Number of faces shared with processor 30 = 4
    Number of faces shared with processor 31 = 3
    Number of faces shared with processor 35 = 12
    Number of faces shared with processor 36 = 13
    Number of faces shared with processor 38 = 3
    Number of faces shared with processor 61 = 6
    Number of processor patches = 11
    Number of processor faces = 60
    Number of boundary faces = 0

Processor 38
    Number of cells = 23
    Number of faces shared with processor 270 = 4
    Number of faces shared with processor 272 = 3
    Number of faces shared with processor 31 = 4
    Number of faces shared with processor 32 = 6
    Number of faces shared with processor 34 = 2
    Number of faces shared with processor 36 = 7
    Number of faces shared with processor 37 = 3
    Number of faces shared with processor 39 = 12
    Number of faces shared with processor 40 = 9
    Number of processor patches = 9
    Number of processor faces = 50
    Number of boundary faces = 6

Processor 39
    Number of cells = 23
    Number of faces shared with processor 270 = 4
    Number of faces shared with processor 272 = 2
    Number of faces shared with processor 36 = 8
    Number of faces shared with processor 38 = 12
    Number of faces shared with processor 40 = 2
    Number of faces shared with processor 41 = 8
    Number of faces shared with processor 56 = 7
    Number of faces shared with processor 57 = 2
    Number of faces shared with processor 58 = 3
    Number of processor patches = 9
    Number of processor faces = 48
    Number of boundary faces = 8

Processor 40
    Number of cells = 23
    Number of faces shared with processor 33 = 4
    Number of faces shared with processor 34 = 4
    Number of faces shared with processor 35 = 8
    Number of faces shared with processor 36 = 3
    Number of faces shared with processor 38 = 9
    Number of faces shared with processor 39 = 2
    Number of faces shared with processor 41 = 12
    Number of faces shared with processor 49 = 1
    Number of faces shared with processor 51 = 2
    Number of faces shared with processor 52 = 7
    Number of processor patches = 10
    Number of processor faces = 52
    Number of boundary faces = 4

Processor 41
    Number of cells = 23
    Number of faces shared with processor 35 = 1
    Number of faces shared with processor 36 = 3
    Number of faces shared with processor 39 = 8
    Number of faces shared with processor 40 = 12
    Number of faces shared with processor 51 = 5
    Number of faces shared with processor 52 = 4
    Number of faces shared with processor 54 = 3
    Number of faces shared with processor 55 = 5
    Number of faces shared with processor 57 = 5
    Number of faces shared with processor 58 = 3
    Number of faces shared with processor 59 = 2
    Number of faces shared with processor 60 = 4
    Number of faces shared with processor 68 = 3
    Number of processor patches = 13
    Number of processor faces = 58
    Number of boundary faces = 4

Processor 42
    Number of cells = 22
    Number of faces shared with processor 3 = 6
    Number of faces shared with processor 10 = 2
    Number of faces shared with processor 44 = 10
    Number of faces shared with processor 45 = 4
    Number of faces shared with processor 47 = 3
    Number of faces shared with processor 48 = 4
    Number of faces shared with processor 50 = 4
    Number of faces shared with processor 54 = 2
    Number of faces shared with processor 199 = 1
    Number of faces shared with processor 200 = 1
    Number of faces shared with processor 202 = 4
    Number of faces shared with processor 213 = 6
    Number of faces shared with processor 215 = 6
    Number of processor patches = 13
    Number of processor faces = 53
    Number of boundary faces = 3

Processor 43
    Number of cells = 23
    Number of faces shared with processor 5 = 2
    Number of faces shared with processor 18 = 3
    Number of faces shared with processor 28 = 8
    Number of faces shared with processor 30 = 2
    Number of faces shared with processor 33 = 2
    Number of faces shared with processor 44 = 12
    Number of faces shared with processor 45 = 8
    Number of faces shared with processor 49 = 7
    Number of processor patches = 8
    Number of processor faces = 44
    Number of boundary faces = 8

Processor 44
    Number of cells = 23
    Number of faces shared with processor 3 = 4
    Number of faces shared with processor 5 = 2
    Number of faces shared with processor 6 = 7
    Number of faces shared with processor 42 = 10
    Number of faces shared with processor 43 = 12
    Number of faces shared with processor 45 = 10
    Number of faces shared with processor 48 = 1
    Number of faces shared with processor 49 = 7
    Number of faces shared with processor 50 = 2
    Number of processor patches = 9
    Number of processor faces = 55
    Number of boundary faces = 7

Processor 45
    Number of cells = 23
    Number of faces shared with processor 33 = 3
    Number of faces shared with processor 42 = 4
    Number of faces shared with processor 43 = 8
    Number of faces shared with processor 44 = 10
    Number of faces shared with processor 46 = 13
    Number of faces shared with processor 47 = 9
    Number of faces shared with processor 48 = 3
    Number of faces shared with processor 49 = 1
    Number of faces shared with processor 52 = 1
    Number of faces shared with processor 53 = 1
    Number of processor patches = 10
    Number of processor faces = 53
    Number of boundary faces = 9

Processor 46
    Number of cells = 23
    Number of faces shared with processor 33 = 4
    Number of faces shared with processor 34 = 5
    Number of faces shared with processor 45 = 13
    Number of faces shared with processor 47 = 4
    Number of faces shared with processor 48 = 3
    Number of faces shared with processor 52 = 7
    Number of faces shared with processor 53 = 2
    Number of processor patches = 7
    Number of processor faces = 38
    Number of boundary faces = 16

Processor 47
    Number of cells = 23
    Number of faces shared with processor 42 = 3
    Number of faces shared with processor 45 = 9
    Number of faces shared with processor 46 = 4
    Number of faces shared with processor 48 = 13
    Number of faces shared with processor 211 = 3
    Number of faces shared with processor 212 = 4
    Number of faces shared with processor 213 = 1
    Number of processor patches = 7
    Number of processor faces = 37
    Number of boundary faces = 17

Processor 48
    Number of cells = 23
    Number of faces shared with processor 42 = 4
    Number of faces shared with processor 44 = 1
    Number of faces shared with processor 45 = 3
    Number of faces shared with processor 46 = 3
    Number of faces shared with processor 47 = 13
    Number of faces shared with processor 49 = 1
    Number of faces shared with processor 52 = 1
    Number of faces shared with processor 53 = 9
    Number of faces shared with processor 54 = 3
    Number of faces shared with processor 198 = 4
    Number of faces shared with processor 212 = 6
    Number of faces shared with processor 215 = 2
    Number of processor patches = 12
    Number of processor faces = 50
    Number of boundary faces = 6

Processor 49
    Number of cells = 22
    Number of faces shared with processor 6 = 3
    Number of faces shared with processor 11 = 1
    Number of faces shared with processor 18 = 1
    Number of faces shared with processor 23 = 1
    Number of faces shared with processor 28 = 3
    Number of faces shared with processor 33 = 2
    Number of faces shared with processor 35 = 4
    Number of faces shared with processor 40 = 1
    Number of faces shared with processor 43 = 7
    Number of faces shared with processor 44 = 7
    Number of faces shared with processor 45 = 1
    Number of faces shared with processor 48 = 1
    Number of faces shared with processor 50 = 6
    Number of faces shared with processor 51 = 10
    Number of faces shared with processor 52 = 7
    Number of faces shared with processor 53 = 1
    Number of processor patches = 16
    Number of processor faces = 56
    Number of boundary faces = 0

Processor 50
    Number of cells = 23
    Number of faces shared with processor 10 = 6
    Number of faces shared with processor 11 = 1
    Number of faces shared with processor 42 = 4
    Number of faces shared with processor 44 = 2
    Number of faces shared with processor 49 = 6
    Number of faces shared with processor 51 = 11
    Number of faces shared with processor 54 = 9
    Number of faces shared with processor 63 = 3
    Number of faces shared with processor 65 = 6
    Number of faces shared with processor 199 = 3
    Number of faces shared with processor 202 = 3
    Number of processor patches = 11
    Number of processor faces = 54
    Number of boundary faces = 0

Processor 51
    Number of cells = 23
    Number of faces shared with processor 10 = 2
    Number of faces shared with processor 11 = 4
    Number of faces shared with processor 23 = 2
    Number of faces shared with processor 35 = 6
    Number of faces shared with processor 40 = 2
    Number of faces shared with processor 41 = 5
    Number of faces shared with processor 49 = 10
    Number of faces shared with processor 50 = 11
    Number of faces shared with processor 52 = 2
    Number of faces shared with processor 53 = 2
    Number of faces shared with processor 54 = 7
    Number of faces shared with processor 59 = 3
    Number of faces shared with processor 63 = 2
    Number of faces shared with processor 65 = 4
    Number of processor patches = 14
    Number of processor faces = 62
    Number of boundary faces = 0

Processor 52
    Number of cells = 23
    Number of faces shared with processor 33 = 1
    Number of faces shared with processor 34 = 2
    Number of faces shared with processor 40 = 7
    Number of faces shared with processor 41 = 4
    Number of faces shared with processor 45 = 1
    Number of faces shared with processor 46 = 7
    Number of faces shared with processor 48 = 1
    Number of faces shared with processor 49 = 7
    Number of faces shared with processor 51 = 2
    Number of faces shared with processor 53 = 13
    Number of faces shared with processor 54 = 2
    Number of faces shared with processor 55 = 2
    Number of processor patches = 12
    Number of processor faces = 49
    Number of boundary faces = 7

Processor 53
    Number of cells = 23
    Number of faces shared with processor 45 = 1
    Number of faces shared with processor 46 = 2
    Number of faces shared with processor 48 = 9
    Number of faces shared with processor 49 = 1
    Number of faces shared with processor 51 = 2
    Number of faces shared with processor 52 = 13
    Number of faces shared with processor 54 = 7
    Number of faces shared with processor 55 = 9
    Number of faces shared with processor 198 = 6
    Number of processor patches = 9
    Number of processor faces = 50
    Number of boundary faces = 6

Processor 54
    Number of cells = 23
    Number of faces shared with processor 41 = 3
    Number of faces shared with processor 42 = 2
    Number of faces shared with processor 48 = 3
    Number of faces shared with processor 50 = 9
    Number of faces shared with processor 51 = 7
    Number of faces shared with processor 52 = 2
    Number of faces shared with processor 53 = 7
    Number of faces shared with processor 55 = 10
    Number of faces shared with processor 63 = 2
    Number of faces shared with processor 67 = 2
    Number of faces shared with processor 68 = 3
    Number of faces shared with processor 198 = 2
    Number of faces shared with processor 202 = 6
    Number of processor patches = 13
    Number of processor faces = 58
    Number of boundary faces = 0

Processor 55
    Number of cells = 23
    Number of faces shared with processor 41 = 5
    Number of faces shared with processor 52 = 2
    Number of faces shared with processor 53 = 9
    Number of faces shared with processor 54 = 10
    Number of faces shared with processor 67 = 6
    Number of faces shared with processor 68 = 6
    Number of faces shared with processor 197 = 6
    Number of processor patches = 7
    Number of processor faces = 44
    Number of boundary faces = 8

Processor 56
    Number of cells = 22
    Number of faces shared with processor 36 = 1
    Number of faces shared with processor 39 = 7
    Number of faces shared with processor 57 = 6
    Number of faces shared with processor 58 = 9
    Number of faces shared with processor 62 = 6
    Number of faces shared with processor 78 = 5
    Number of faces shared with processor 334 = 7
    Number of faces shared with processor 79 = 1
    Number of faces shared with processor 335 = 4
    Number of processor patches = 9
    Number of processor faces = 46
    Number of boundary faces = 4

Processor 57
    Number of cells = 23
    Number of faces shared with processor 39 = 2
    Number of faces shared with processor 41 = 5
    Number of faces shared with processor 56 = 6
    Number of faces shared with processor 58 = 11
    Number of faces shared with processor 60 = 11
    Number of faces shared with processor 62 = 3
    Number of faces shared with processor 68 = 6
    Number of faces shared with processor 69 = 5
    Number of faces shared with processor 78 = 5
    Number of faces shared with processor 81 = 2
    Number of processor patches = 10
    Number of processor faces = 56
    Number of boundary faces = 0

Processor 58
    Number of cells = 23
    Number of faces shared with processor 39 = 3
    Number of faces shared with processor 41 = 3
    Number of faces shared with processor 56 = 9
    Number of faces shared with processor 57 = 11
    Number of faces shared with processor 68 = 4
    Number of faces shared with processor 69 = 5
    Number of faces shared with processor 78 = 1
    Number of faces shared with processor 335 = 1
    Number of faces shared with processor 79 = 8
    Number of faces shared with processor 81 = 1
    Number of faces shared with processor 83 = 2
    Number of processor patches = 11
    Number of processor faces = 48
    Number of boundary faces = 12

Processor 59
    Number of cells = 23
    Number of faces shared with processor 35 = 2
    Number of faces shared with processor 41 = 2
    Number of faces shared with processor 51 = 3
    Number of faces shared with processor 60 = 12
    Number of faces shared with processor 61 = 8
    Number of faces shared with processor 62 = 2
    Number of faces shared with processor 64 = 1
    Number of faces shared with processor 65 = 8
    Number of faces shared with processor 71 = 3
    Number of faces shared with processor 74 = 3
    Number of faces shared with processor 87 = 1
    Number of faces shared with processor 88 = 3
    Number of faces shared with processor 91 = 1
    Number of faces shared with processor 111 = 7
    Number of processor patches = 14
    Number of processor faces = 56
    Number of boundary faces = 0

Processor 60
    Number of cells = 23
    Number of faces shared with processor 36 = 2
    Number of faces shared with processor 41 = 4
    Number of faces shared with processor 57 = 11
    Number of faces shared with processor 59 = 12
    Number of faces shared with processor 61 = 1
    Number of faces shared with processor 62 = 6
    Number of faces shared with processor 63 = 8
    Number of faces shared with processor 71 = 1
    Number of faces shared with processor 72 = 2
    Number of faces shared with processor 74 = 1
    Number of faces shared with processor 76 = 4
    Number of faces shared with processor 81 = 2
    Number of processor patches = 12
    Number of processor faces = 54
    Number of boundary faces = 0

Processor 61
    Number of cells = 23
    Number of faces shared with processor 266 = 2
    Number of faces shared with processor 35 = 2
    Number of faces shared with processor 36 = 4
    Number of faces shared with processor 37 = 6
    Number of faces shared with processor 59 = 8
    Number of faces shared with processor 60 = 1
    Number of faces shared with processor 62 = 13
    Number of faces shared with processor 329 = 5
    Number of faces shared with processor 74 = 1
    Number of faces shared with processor 108 = 6
    Number of faces shared with processor 109 = 4
    Number of faces shared with processor 111 = 2
    Number of processor patches = 12
    Number of processor faces = 54
    Number of boundary faces = 0

Processor 62
    Number of cells = 23
    Number of faces shared with processor 36 = 6
    Number of faces shared with processor 56 = 6
    Number of faces shared with processor 57 = 3
    Number of faces shared with processor 59 = 2
    Number of faces shared with processor 60 = 6
    Number of faces shared with processor 61 = 13
    Number of faces shared with processor 329 = 3
    Number of faces shared with processor 74 = 5
    Number of faces shared with processor 331 = 2
    Number of faces shared with processor 76 = 6
    Number of faces shared with processor 334 = 2
    Number of faces shared with processor 109 = 2
    Number of processor patches = 12
    Number of processor faces = 56
    Number of boundary faces = 0

Processor 63
    Number of cells = 22
    Number of faces shared with processor 50 = 3
    Number of faces shared with processor 51 = 2
    Number of faces shared with processor 54 = 2
    Number of faces shared with processor 60 = 8
    Number of faces shared with processor 64 = 7
    Number of faces shared with processor 65 = 9
    Number of faces shared with processor 66 = 3
    Number of faces shared with processor 67 = 4
    Number of faces shared with processor 68 = 7
    Number of faces shared with processor 69 = 7
    Number of faces shared with processor 72 = 2
    Number of faces shared with processor 80 = 1
    Number of faces shared with processor 81 = 1
    Number of faces shared with processor 113 = 3
    Number of faces shared with processor 118 = 1
    Number of processor patches = 15
    Number of processor faces = 60
    Number of boundary faces = 0

Processor 64
    Number of cells = 23
    Number of faces shared with processor 59 = 1
    Number of faces shared with processor 63 = 7
    Number of faces shared with processor 65 = 11
    Number of faces shared with processor 66 = 6
    Number of faces shared with processor 71 = 5
    Number of faces shared with processor 72 = 1
    Number of faces shared with processor 89 = 3
    Number of faces shared with processor 91 = 5
    Number of faces shared with processor 113 = 3
    Number of faces shared with processor 114 = 6
    Number of faces shared with processor 124 = 6
    Number of processor patches = 11
    Number of processor faces = 54
    Number of boundary faces = 0

Processor 65
    Number of cells = 23
    Number of faces shared with processor 10 = 2
    Number of faces shared with processor 50 = 6
    Number of faces shared with processor 51 = 4
    Number of faces shared with processor 59 = 8
    Number of faces shared with processor 63 = 9
    Number of faces shared with processor 64 = 11
    Number of faces shared with processor 71 = 1
    Number of faces shared with processor 199 = 3
    Number of faces shared with processor 87 = 1
    Number of faces shared with processor 88 = 3
    Number of faces shared with processor 89 = 9
    Number of faces shared with processor 91 = 1
    Number of faces shared with processor 113 = 2
    Number of processor patches = 13
    Number of processor faces = 60
    Number of boundary faces = 0

Processor 66
    Number of cells = 23
    Number of faces shared with processor 63 = 3
    Number of faces shared with processor 64 = 6
    Number of faces shared with processor 67 = 11
    Number of faces shared with processor 69 = 6
    Number of faces shared with processor 80 = 3
    Number of faces shared with processor 83 = 2
    Number of faces shared with processor 113 = 1
    Number of faces shared with processor 114 = 2
    Number of faces shared with processor 115 = 3
    Number of faces shared with processor 118 = 1
    Number of faces shared with processor 119 = 8
    Number of faces shared with processor 121 = 3
    Number of faces shared with processor 125 = 3
    Number of processor patches = 13
    Number of processor faces = 52
    Number of boundary faces = 4

Processor 67
    Number of cells = 23
    Number of faces shared with processor 54 = 2
    Number of faces shared with processor 55 = 6
    Number of faces shared with processor 63 = 4
    Number of faces shared with processor 66 = 11
    Number of faces shared with processor 68 = 8
    Number of faces shared with processor 69 = 3
    Number of faces shared with processor 115 = 9
    Number of faces shared with processor 118 = 3
    Number of processor patches = 8
    Number of processor faces = 46
    Number of boundary faces = 6

Processor 68
    Number of cells = 23
    Number of faces shared with processor 41 = 3
    Number of faces shared with processor 54 = 3
    Number of faces shared with processor 55 = 6
    Number of faces shared with processor 57 = 6
    Number of faces shared with processor 58 = 4
    Number of faces shared with processor 63 = 7
    Number of faces shared with processor 67 = 8
    Number of faces shared with processor 69 = 11
    Number of processor patches = 8
    Number of processor faces = 48
    Number of boundary faces = 6

Processor 69
    Number of cells = 23
    Number of faces shared with processor 57 = 5
    Number of faces shared with processor 58 = 5
    Number of faces shared with processor 63 = 7
    Number of faces shared with processor 66 = 6
    Number of faces shared with processor 67 = 3
    Number of faces shared with processor 68 = 11
    Number of faces shared with processor 80 = 4
    Number of faces shared with processor 81 = 1
    Number of faces shared with processor 83 = 6
    Number of processor patches = 9
    Number of processor faces = 48
    Number of boundary faces = 6

Processor 70
    Number of cells = 22
    Number of faces shared with processor 161 = 2
    Number of faces shared with processor 71 = 9
    Number of faces shared with processor 72 = 10
    Number of faces shared with processor 73 = 6
    Number of faces shared with processor 74 = 3
    Number of faces shared with processor 75 = 4
    Number of faces shared with processor 96 = 4
    Number of faces shared with processor 97 = 4
    Number of faces shared with processor 104 = 1
    Number of faces shared with processor 124 = 2
    Number of processor patches = 10
    Number of processor faces = 45
    Number of boundary faces = 11

Processor 71
    Number of cells = 23
    Number of faces shared with processor 161 = 1
    Number of faces shared with processor 59 = 3
    Number of faces shared with processor 60 = 1
    Number of faces shared with processor 64 = 5
    Number of faces shared with processor 65 = 1
    Number of faces shared with processor 70 = 9
    Number of faces shared with processor 72 = 12
    Number of faces shared with processor 73 = 2
    Number of faces shared with processor 74 = 4
    Number of faces shared with processor 91 = 5
    Number of faces shared with processor 96 = 4
    Number of faces shared with processor 97 = 2
    Number of faces shared with processor 102 = 1
    Number of faces shared with processor 111 = 1
    Number of faces shared with processor 124 = 1
    Number of processor patches = 15
    Number of processor faces = 52
    Number of boundary faces = 0

Processor 72
    Number of cells = 23
    Number of faces shared with processor 60 = 2
    Number of faces shared with processor 63 = 2
    Number of faces shared with processor 64 = 1
    Number of faces shared with processor 70 = 10
    Number of faces shared with processor 71 = 12
    Number of faces shared with processor 75 = 2
    Number of faces shared with processor 76 = 2
    Number of faces shared with processor 80 = 7
    Number of faces shared with processor 81 = 9
    Number of faces shared with processor 124 = 4
    Number of faces shared with processor 125 = 2
    Number of processor patches = 11
    Number of processor faces = 53
    Number of boundary faces = 7

Processor 73
    Number of cells = 23
    Number of faces shared with processor 299 = 4
    Number of faces shared with processor 322 = 3
    Number of faces shared with processor 70 = 6
    Number of faces shared with processor 71 = 2
    Number of faces shared with processor 74 = 13
    Number of faces shared with processor 75 = 5
    Number of faces shared with processor 102 = 4
    Number of faces shared with processor 103 = 5
    Number of faces shared with processor 104 = 6
    Number of faces shared with processor 109 = 3
    Number of faces shared with processor 111 = 1
    Number of processor patches = 11
    Number of processor faces = 52
    Number of boundary faces = 6

Processor 74
    Number of cells = 23
    Number of faces shared with processor 59 = 3
    Number of faces shared with processor 60 = 1
    Number of faces shared with processor 61 = 1
    Number of faces shared with processor 62 = 5
    Number of faces shared with processor 322 = 3
    Number of faces shared with processor 70 = 3
    Number of faces shared with processor 71 = 4
    Number of faces shared with processor 73 = 13
    Number of faces shared with processor 329 = 2
    Number of faces shared with processor 75 = 5
    Number of faces shared with processor 76 = 12
    Number of faces shared with processor 109 = 3
    Number of faces shared with processor 111 = 1
    Number of processor patches = 13
    Number of processor faces = 56
    Number of boundary faces = 0

Processor 75
    Number of cells = 23
    Number of faces shared with processor 322 = 4
    Number of faces shared with processor 70 = 4
    Number of faces shared with processor 328 = 2
    Number of faces shared with processor 72 = 2
    Number of faces shared with processor 73 = 5
    Number of faces shared with processor 74 = 5
    Number of faces shared with processor 76 = 10
    Number of faces shared with processor 77 = 6
    Number of faces shared with processor 78 = 1
    Number of faces shared with processor 81 = 3
    Number of faces shared with processor 82 = 2
    Number of processor patches = 11
    Number of processor faces = 44
    Number of boundary faces = 12

Processor 76
    Number of cells = 23
    Number of faces shared with processor 60 = 4
    Number of faces shared with processor 62 = 6
    Number of faces shared with processor 322 = 1
    Number of faces shared with processor 324 = 2
    Number of faces shared with processor 328 = 1
    Number of faces shared with processor 72 = 2
    Number of faces shared with processor 329 = 1
    Number of faces shared with processor 74 = 12
    Number of faces shared with processor 75 = 10
    Number of faces shared with processor 77 = 1
    Number of faces shared with processor 78 = 10
    Number of faces shared with processor 334 = 1
    Number of faces shared with processor 81 = 1
    Number of processor patches = 13
    Number of processor faces = 52
    Number of boundary faces = 0

Processor 77
    Number of cells = 22
    Number of faces shared with processor 327 = 3
    Number of faces shared with processor 328 = 7
    Number of faces shared with processor 75 = 6
    Number of faces shared with processor 76 = 1
    Number of faces shared with processor 78 = 10
    Number of faces shared with processor 79 = 5
    Number of faces shared with processor 81 = 2
    Number of faces shared with processor 82 = 12
    Number of processor patches = 8
    Number of processor faces = 46
    Number of boundary faces = 12

Processor 78
    Number of cells = 23
    Number of faces shared with processor 56 = 5
    Number of faces shared with processor 57 = 5
    Number of faces shared with processor 58 = 1
    Number of faces shared with processor 328 = 2
    Number of faces shared with processor 75 = 1
    Number of faces shared with processor 76 = 10
    Number of faces shared with processor 77 = 10
    Number of faces shared with processor 334 = 2
    Number of faces shared with processor 335 = 1
    Number of faces shared with processor 79 = 13
    Number of faces shared with processor 81 = 4
    Number of processor patches = 11
    Number of processor faces = 54
    Number of boundary faces = 0

Processor 79
    Number of cells = 23
    Number of faces shared with processor 56 = 1
    Number of faces shared with processor 58 = 8
    Number of faces shared with processor 327 = 4
    Number of faces shared with processor 77 = 5
    Number of faces shared with processor 78 = 13
    Number of faces shared with processor 335 = 1
    Number of faces shared with processor 82 = 4
    Number of faces shared with processor 83 = 4
    Number of processor patches = 8
    Number of processor faces = 40
    Number of boundary faces = 12

Processor 80
    Number of cells = 23
    Number of faces shared with processor 63 = 1
    Number of faces shared with processor 66 = 3
    Number of faces shared with processor 69 = 4
    Number of faces shared with processor 72 = 7
    Number of faces shared with processor 81 = 13
    Number of faces shared with processor 82 = 2
    Number of faces shared with processor 83 = 7
    Number of faces shared with processor 119 = 5
    Number of faces shared with processor 125 = 4
    Number of processor patches = 9
    Number of processor faces = 46
    Number of boundary faces = 6

Processor 81
    Number of cells = 23
    Number of faces shared with processor 57 = 2
    Number of faces shared with processor 58 = 1
    Number of faces shared with processor 60 = 2
    Number of faces shared with processor 63 = 1
    Number of faces shared with processor 69 = 1
    Number of faces shared with processor 72 = 9
    Number of faces shared with processor 75 = 3
    Number of faces shared with processor 76 = 1
    Number of faces shared with processor 77 = 2
    Number of faces shared with processor 78 = 4
    Number of faces shared with processor 80 = 13
    Number of faces shared with processor 82 = 7
    Number of faces shared with processor 83 = 4
    Number of processor patches = 13
    Number of processor faces = 50
    Number of boundary faces = 4

Processor 82
    Number of cells = 23
    Number of faces shared with processor 75 = 2
    Number of faces shared with processor 77 = 12
    Number of faces shared with processor 79 = 4
    Number of faces shared with processor 80 = 2
    Number of faces shared with processor 81 = 7
    Number of faces shared with processor 83 = 10
    Number of processor patches = 6
    Number of processor faces = 37
    Number of boundary faces = 23

Processor 83
    Number of cells = 23
    Number of faces shared with processor 58 = 2
    Number of faces shared with processor 66 = 2
    Number of faces shared with processor 69 = 6
    Number of faces shared with processor 79 = 4
    Number of faces shared with processor 80 = 7
    Number of faces shared with processor 81 = 4
    Number of faces shared with processor 82 = 10
    Number of faces shared with processor 119 = 6
    Number of processor patches = 8
    Number of processor faces = 41
    Number of boundary faces = 15

Processor 84
    Number of cells = 22
    Number of faces shared with processor 8 = 9
    Number of faces shared with processor 12 = 2
    Number of faces shared with processor 13 = 1
    Number of faces shared with processor 172 = 7
    Number of faces shared with processor 85 = 7
    Number of faces shared with processor 86 = 9
    Number of faces shared with processor 87 = 1
    Number of faces shared with processor 88 = 3
    Number of faces shared with processor 90 = 7
    Number of processor patches = 9
    Number of processor faces = 46
    Number of boundary faces = 6

Processor 85
    Number of cells = 23
    Number of faces shared with processor 7 = 3
    Number of faces shared with processor 8 = 2
    Number of faces shared with processor 13 = 3
    Number of faces shared with processor 84 = 7
    Number of faces shared with processor 86 = 10
    Number of faces shared with processor 87 = 4
    Number of faces shared with processor 88 = 6
    Number of faces shared with processor 92 = 1
    Number of faces shared with processor 98 = 1
    Number of faces shared with processor 106 = 10
    Number of faces shared with processor 110 = 2
    Number of processor patches = 11
    Number of processor faces = 49
    Number of boundary faces = 7

Processor 86
    Number of cells = 23
    Number of faces shared with processor 158 = 2
    Number of faces shared with processor 159 = 4
    Number of faces shared with processor 84 = 9
    Number of faces shared with processor 85 = 10
    Number of faces shared with processor 87 = 4
    Number of faces shared with processor 90 = 4
    Number of faces shared with processor 92 = 8
    Number of faces shared with processor 93 = 6
    Number of faces shared with processor 98 = 1
    Number of faces shared with processor 106 = 1
    Number of processor patches = 10
    Number of processor faces = 49
    Number of boundary faces = 7

Processor 87
    Number of cells = 23
    Number of faces shared with processor 59 = 1
    Number of faces shared with processor 65 = 1
    Number of faces shared with processor 84 = 1
    Number of faces shared with processor 85 = 4
    Number of faces shared with processor 86 = 4
    Number of faces shared with processor 88 = 13
    Number of faces shared with processor 89 = 5
    Number of faces shared with processor 90 = 6
    Number of faces shared with processor 91 = 7
    Number of faces shared with processor 92 = 5
    Number of faces shared with processor 93 = 1
    Number of faces shared with processor 110 = 5
    Number of faces shared with processor 111 = 3
    Number of processor patches = 13
    Number of processor faces = 56
    Number of boundary faces = 0

Processor 88
    Number of cells = 23
    Number of faces shared with processor 11 = 4
    Number of faces shared with processor 13 = 2
    Number of faces shared with processor 22 = 2
    Number of faces shared with processor 23 = 2
    Number of faces shared with processor 59 = 3
    Number of faces shared with processor 65 = 3
    Number of faces shared with processor 84 = 3
    Number of faces shared with processor 85 = 6
    Number of faces shared with processor 87 = 13
    Number of faces shared with processor 89 = 7
    Number of faces shared with processor 90 = 4
    Number of faces shared with processor 110 = 2
    Number of faces shared with processor 111 = 7
    Number of processor patches = 13
    Number of processor faces = 58
    Number of boundary faces = 0

Processor 89
    Number of cells = 23
    Number of faces shared with processor 10 = 3
    Number of faces shared with processor 11 = 3
    Number of faces shared with processor 156 = 3
    Number of faces shared with processor 170 = 4
    Number of faces shared with processor 64 = 3
    Number of faces shared with processor 65 = 9
    Number of faces shared with processor 87 = 5
    Number of faces shared with processor 88 = 7
    Number of faces shared with processor 90 = 10
    Number of faces shared with processor 91 = 5
    Number of processor patches = 10
    Number of processor faces = 52
    Number of boundary faces = 0

Processor 90
    Number of cells = 23
    Number of faces shared with processor 10 = 1
    Number of faces shared with processor 11 = 1
    Number of faces shared with processor 12 = 2
    Number of faces shared with processor 155 = 4
    Number of faces shared with processor 156 = 1
    Number of faces shared with processor 159 = 2
    Number of faces shared with processor 170 = 4
    Number of faces shared with processor 172 = 1
    Number of faces shared with processor 84 = 7
    Number of faces shared with processor 86 = 4
    Number of faces shared with processor 87 = 6
    Number of faces shared with processor 88 = 4
    Number of faces shared with processor 89 = 10
    Number of faces shared with processor 91 = 3
    Number of faces shared with processor 93 = 4
    Number of processor patches = 15
    Number of processor faces = 54
    Number of boundary faces = 0

Processor 91
    Number of cells = 23
    Number of faces shared with processor 155 = 6
    Number of faces shared with processor 161 = 5
    Number of faces shared with processor 162 = 1
    Number of faces shared with processor 59 = 1
    Number of faces shared with processor 64 = 5
    Number of faces shared with processor 65 = 1
    Number of faces shared with processor 71 = 5
    Number of faces shared with processor 87 = 7
    Number of faces shared with processor 89 = 5
    Number of faces shared with processor 90 = 3
    Number of faces shared with processor 92 = 2
    Number of faces shared with processor 93 = 6
    Number of faces shared with processor 96 = 6
    Number of faces shared with processor 97 = 2
    Number of faces shared with processor 102 = 1
    Number of faces shared with processor 111 = 2
    Number of processor patches = 16
    Number of processor faces = 58
    Number of boundary faces = 0

Processor 92
    Number of cells = 23
    Number of faces shared with processor 85 = 1
    Number of faces shared with processor 86 = 8
    Number of faces shared with processor 87 = 5
    Number of faces shared with processor 91 = 2
    Number of faces shared with processor 93 = 11
    Number of faces shared with processor 94 = 7
    Number of faces shared with processor 95 = 2
    Number of faces shared with processor 96 = 1
    Number of faces shared with processor 97 = 5
    Number of faces shared with processor 98 = 4
    Number of faces shared with processor 101 = 4
    Number of processor patches = 11
    Number of processor faces = 50
    Number of boundary faces = 6

Processor 93
    Number of cells = 23
    Number of faces shared with processor 155 = 1
    Number of faces shared with processor 157 = 4
    Number of faces shared with processor 159 = 5
    Number of faces shared with processor 162 = 5
    Number of faces shared with processor 163 = 5
    Number of faces shared with processor 86 = 6
    Number of faces shared with processor 87 = 1
    Number of faces shared with processor 90 = 4
    Number of faces shared with processor 91 = 6
    Number of faces shared with processor 92 = 11
    Number of faces shared with processor 97 = 4
    Number of processor patches = 11
    Number of processor faces = 52
    Number of boundary faces = 4

Processor 94
    Number of cells = 23
    Number of faces shared with processor 162 = 2
    Number of faces shared with processor 163 = 9
    Number of faces shared with processor 92 = 7
    Number of faces shared with processor 95 = 13
    Number of faces shared with processor 97 = 8
    Number of processor patches = 5
    Number of processor faces = 39
    Number of boundary faces = 15

Processor 95
    Number of cells = 23
    Number of faces shared with processor 92 = 2
    Number of faces shared with processor 94 = 13
    Number of faces shared with processor 96 = 6
    Number of faces shared with processor 97 = 2
    Number of faces shared with processor 98 = 4
    Number of faces shared with processor 100 = 4
    Number of faces shared with processor 101 = 4
    Number of faces shared with processor 104 = 4
    Number of processor patches = 8
    Number of processor faces = 39
    Number of boundary faces = 13

Processor 96
    Number of cells = 23
    Number of faces shared with processor 70 = 4
    Number of faces shared with processor 71 = 4
    Number of faces shared with processor 91 = 6
    Number of faces shared with processor 92 = 1
    Number of faces shared with processor 95 = 6
    Number of faces shared with processor 97 = 14
    Number of faces shared with processor 101 = 3
    Number of faces shared with processor 102 = 5
    Number of faces shared with processor 104 = 7
    Number of processor patches = 9
    Number of processor faces = 50
    Number of boundary faces = 6

Processor 97
    Number of cells = 23
    Number of faces shared with processor 161 = 5
    Number of faces shared with processor 162 = 5
    Number of faces shared with processor 70 = 4
    Number of faces shared with processor 71 = 2
    Number of faces shared with processor 91 = 2
    Number of faces shared with processor 92 = 5
    Number of faces shared with processor 93 = 4
    Number of faces shared with processor 94 = 8
    Number of faces shared with processor 95 = 2
    Number of faces shared with processor 96 = 14
    Number of faces shared with processor 101 = 1
    Number of processor patches = 11
    Number of processor faces = 52
    Number of boundary faces = 6

Processor 98
    Number of cells = 22
    Number of faces shared with processor 85 = 1
    Number of faces shared with processor 86 = 1
    Number of faces shared with processor 92 = 4
    Number of faces shared with processor 95 = 4
    Number of faces shared with processor 99 = 6
    Number of faces shared with processor 100 = 6
    Number of faces shared with processor 101 = 8
    Number of faces shared with processor 106 = 6
    Number of faces shared with processor 107 = 3
    Number of processor patches = 9
    Number of processor faces = 39
    Number of boundary faces = 11

Processor 99
    Number of cells = 23
    Number of faces shared with processor 294 = 4
    Number of faces shared with processor 296 = 2
    Number of faces shared with processor 301 = 5
    Number of faces shared with processor 304 = 1
    Number of faces shared with processor 98 = 6
    Number of faces shared with processor 100 = 9
    Number of faces shared with processor 101 = 5
    Number of faces shared with processor 102 = 4
    Number of faces shared with processor 103 = 4
    Number of faces shared with processor 105 = 6
    Number of faces shared with processor 107 = 4
    Number of processor patches = 11
    Number of processor faces = 50
    Number of boundary faces = 6

Processor 100
    Number of cells = 23
    Number of faces shared with processor 294 = 7
    Number of faces shared with processor 95 = 4
    Number of faces shared with processor 98 = 6
    Number of faces shared with processor 99 = 9
    Number of faces shared with processor 103 = 4
    Number of faces shared with processor 104 = 6
    Number of processor patches = 6
    Number of processor faces = 36
    Number of boundary faces = 20

Processor 101
    Number of cells = 22
    Number of faces shared with processor 92 = 4
    Number of faces shared with processor 95 = 4
    Number of faces shared with processor 96 = 3
    Number of faces shared with processor 97 = 1
    Number of faces shared with processor 98 = 8
    Number of faces shared with processor 99 = 5
    Number of faces shared with processor 102 = 11
    Number of faces shared with processor 103 = 2
    Number of faces shared with processor 104 = 6
    Number of faces shared with processor 106 = 2
    Number of faces shared with processor 107 = 1
    Number of faces shared with processor 110 = 5
    Number of processor patches = 12
    Number of processor faces = 52
    Number of boundary faces = 0

Processor 102
    Number of cells = 23
    Number of faces shared with processor 299 = 1
    Number of faces shared with processor 300 = 2
    Number of faces shared with processor 304 = 2
    Number of faces shared with processor 71 = 1
    Number of faces shared with processor 73 = 4
    Number of faces shared with processor 91 = 1
    Number of faces shared with processor 96 = 5
    Number of faces shared with processor 99 = 4
    Number of faces shared with processor 101 = 11
    Number of faces shared with processor 103 = 7
    Number of faces shared with processor 104 = 6
    Number of faces shared with processor 105 = 2
    Number of faces shared with processor 109 = 8
    Number of faces shared with processor 110 = 4
    Number of faces shared with processor 111 = 4
    Number of processor patches = 15
    Number of processor faces = 62
    Number of boundary faces = 0

Processor 103
    Number of cells = 23
    Number of faces shared with processor 299 = 2
    Number of faces shared with processor 300 = 10
    Number of faces shared with processor 73 = 5
    Number of faces shared with processor 99 = 4
    Number of faces shared with processor 100 = 4
    Number of faces shared with processor 101 = 2
    Number of faces shared with processor 102 = 7
    Number of faces shared with processor 104 = 11
    Number of processor patches = 8
    Number of processor faces = 45
    Number of boundary faces = 7

Processor 104
    Number of cells = 23
    Number of faces shared with processor 70 = 1
    Number of faces shared with processor 73 = 6
    Number of faces shared with processor 95 = 4
    Number of faces shared with processor 96 = 7
    Number of faces shared with processor 100 = 6
    Number of faces shared with processor 101 = 6
    Number of faces shared with processor 102 = 6
    Number of faces shared with processor 103 = 11
    Number of processor patches = 8
    Number of processor faces = 47
    Number of boundary faces = 11

Processor 105
    Number of cells = 22
    Number of faces shared with processor 24 = 1
    Number of faces shared with processor 25 = 3
    Number of faces shared with processor 301 = 2
    Number of faces shared with processor 302 = 2
    Number of faces shared with processor 304 = 5
    Number of faces shared with processor 99 = 6
    Number of faces shared with processor 102 = 2
    Number of faces shared with processor 106 = 1
    Number of faces shared with processor 107 = 13
    Number of faces shared with processor 108 = 11
    Number of faces shared with processor 109 = 3
    Number of faces shared with processor 110 = 5
    Number of faces shared with processor 238 = 1
    Number of faces shared with processor 241 = 1
    Number of processor patches = 14
    Number of processor faces = 56
    Number of boundary faces = 0

Processor 106
    Number of cells = 23
    Number of faces shared with processor 27 = 9
    Number of faces shared with processor 85 = 10
    Number of faces shared with processor 86 = 1
    Number of faces shared with processor 98 = 6
    Number of faces shared with processor 101 = 2
    Number of faces shared with processor 105 = 1
    Number of faces shared with processor 107 = 12
    Number of faces shared with processor 108 = 1
    Number of faces shared with processor 110 = 10
    Number of processor patches = 9
    Number of processor faces = 52
    Number of boundary faces = 6

Processor 107
    Number of cells = 23
    Number of faces shared with processor 24 = 4
    Number of faces shared with processor 27 = 3
    Number of faces shared with processor 301 = 4
    Number of faces shared with processor 98 = 3
    Number of faces shared with processor 99 = 4
    Number of faces shared with processor 101 = 1
    Number of faces shared with processor 105 = 13
    Number of faces shared with processor 106 = 12
    Number of faces shared with processor 108 = 1
    Number of faces shared with processor 110 = 2
    Number of faces shared with processor 238 = 2
    Number of processor patches = 11
    Number of processor faces = 49
    Number of boundary faces = 9

Processor 108
    Number of cells = 23
    Number of faces shared with processor 21 = 6
    Number of faces shared with processor 23 = 3
    Number of faces shared with processor 25 = 3
    Number of faces shared with processor 304 = 2
    Number of faces shared with processor 305 = 1
    Number of faces shared with processor 61 = 6
    Number of faces shared with processor 105 = 11
    Number of faces shared with processor 106 = 1
    Number of faces shared with processor 107 = 1
    Number of faces shared with processor 109 = 10
    Number of faces shared with processor 110 = 5
    Number of faces shared with processor 111 = 5
    Number of faces shared with processor 241 = 2
    Number of faces shared with processor 242 = 2
    Number of processor patches = 14
    Number of processor faces = 58
    Number of boundary faces = 0

Processor 109
    Number of cells = 23
    Number of faces shared with processor 304 = 2
    Number of faces shared with processor 305 = 6
    Number of faces shared with processor 61 = 4
    Number of faces shared with processor 62 = 2
    Number of faces shared with processor 73 = 3
    Number of faces shared with processor 74 = 3
    Number of faces shared with processor 102 = 8
    Number of faces shared with processor 105 = 3
    Number of faces shared with processor 108 = 10
    Number of faces shared with processor 110 = 5
    Number of faces shared with processor 111 = 6
    Number of processor patches = 11
    Number of processor faces = 52
    Number of boundary faces = 0

Processor 110
    Number of cells = 23
    Number of faces shared with processor 22 = 2
    Number of faces shared with processor 85 = 2
    Number of faces shared with processor 87 = 5
    Number of faces shared with processor 88 = 2
    Number of faces shared with processor 101 = 5
    Number of faces shared with processor 102 = 4
    Number of faces shared with processor 105 = 5
    Number of faces shared with processor 106 = 10
    Number of faces shared with processor 107 = 2
    Number of faces shared with processor 108 = 5
    Number of faces shared with processor 109 = 5
    Number of faces shared with processor 111 = 11
    Number of processor patches = 12
    Number of processor faces = 58
    Number of boundary faces = 0

Processor 111
    Number of cells = 23
    Number of faces shared with processor 23 = 6
    Number of faces shared with processor 59 = 7
    Number of faces shared with processor 61 = 2
    Number of faces shared with processor 71 = 1
    Number of faces shared with processor 73 = 1
    Number of faces shared with processor 74 = 1
    Number of faces shared with processor 87 = 3
    Number of faces shared with processor 88 = 7
    Number of faces shared with processor 91 = 2
    Number of faces shared with processor 102 = 4
    Number of faces shared with processor 108 = 5
    Number of faces shared with processor 109 = 6
    Number of faces shared with processor 110 = 11
    Number of processor patches = 13
    Number of processor faces = 56
    Number of boundary faces = 0

Processor 112
    Number of cells = 22
    Number of faces shared with processor 132 = 3
    Number of faces shared with processor 133 = 8
    Number of faces shared with processor 145 = 8
    Number of faces shared with processor 156 = 4
    Number of faces shared with processor 199 = 2
    Number of faces shared with processor 205 = 2
    Number of faces shared with processor 113 = 7
    Number of faces shared with processor 114 = 6
    Number of faces shared with processor 117 = 3
    Number of faces shared with processor 118 = 4
    Number of faces shared with processor 122 = 3
    Number of faces shared with processor 127 = 2
    Number of processor patches = 12
    Number of processor faces = 52
    Number of boundary faces = 0

Processor 113
    Number of cells = 23
    Number of faces shared with processor 156 = 7
    Number of faces shared with processor 63 = 3
    Number of faces shared with processor 64 = 3
    Number of faces shared with processor 65 = 2
    Number of faces shared with processor 66 = 1
    Number of faces shared with processor 199 = 8
    Number of faces shared with processor 202 = 2
    Number of faces shared with processor 112 = 7
    Number of faces shared with processor 114 = 12
    Number of faces shared with processor 117 = 1
    Number of faces shared with processor 118 = 12
    Number of processor patches = 11
    Number of processor faces = 58
    Number of boundary faces = 0

Processor 114
    Number of cells = 23
    Number of faces shared with processor 155 = 4
    Number of faces shared with processor 156 = 1
    Number of faces shared with processor 64 = 6
    Number of faces shared with processor 66 = 2
    Number of faces shared with processor 112 = 6
    Number of faces shared with processor 113 = 12
    Number of faces shared with processor 117 = 4
    Number of faces shared with processor 118 = 3
    Number of faces shared with processor 122 = 5
    Number of faces shared with processor 123 = 6
    Number of faces shared with processor 124 = 3
    Number of faces shared with processor 125 = 3
    Number of faces shared with processor 127 = 1
    Number of processor patches = 13
    Number of processor faces = 56
    Number of boundary faces = 0

Processor 115
    Number of cells = 23
    Number of faces shared with processor 66 = 3
    Number of faces shared with processor 67 = 9
    Number of faces shared with processor 197 = 5
    Number of faces shared with processor 116 = 12
    Number of faces shared with processor 117 = 2
    Number of faces shared with processor 118 = 7
    Number of faces shared with processor 121 = 6
    Number of processor patches = 7
    Number of processor faces = 44
    Number of boundary faces = 8

Processor 116
    Number of cells = 23
    Number of faces shared with processor 136 = 8
    Number of faces shared with processor 137 = 2
    Number of faces shared with processor 196 = 4
    Number of faces shared with processor 197 = 4
    Number of faces shared with processor 115 = 12
    Number of faces shared with processor 117 = 11
    Number of faces shared with processor 118 = 3
    Number of faces shared with processor 120 = 4
    Number of processor patches = 8
    Number of processor faces = 48
    Number of boundary faces = 10

Processor 117
    Number of cells = 23
    Number of faces shared with processor 133 = 3
    Number of faces shared with processor 134 = 1
    Number of faces shared with processor 136 = 1
    Number of faces shared with processor 137 = 9
    Number of faces shared with processor 196 = 3
    Number of faces shared with processor 201 = 1
    Number of faces shared with processor 112 = 3
    Number of faces shared with processor 113 = 1
    Number of faces shared with processor 114 = 4
    Number of faces shared with processor 115 = 2
    Number of faces shared with processor 116 = 11
    Number of faces shared with processor 118 = 13
    Number of faces shared with processor 120 = 2
    Number of faces shared with processor 123 = 2
    Number of processor patches = 14
    Number of processor faces = 56
    Number of boundary faces = 0

Processor 118
    Number of cells = 23
    Number of faces shared with processor 133 = 1
    Number of faces shared with processor 134 = 2
    Number of faces shared with processor 63 = 1
    Number of faces shared with processor 66 = 1
    Number of faces shared with processor 67 = 3
    Number of faces shared with processor 199 = 2
    Number of faces shared with processor 201 = 6
    Number of faces shared with processor 202 = 5
    Number of faces shared with processor 205 = 1
    Number of faces shared with processor 112 = 4
    Number of faces shared with processor 113 = 12
[...]
    Number of faces shared with processor 447 = 3
    Number of processor patches = 14
    Number of processor faces = 68
    Number of boundary faces = 0

Processor 437
    Number of cells = 23
    Number of faces shared with processor 405 = 4
    Number of faces shared with processor 425 = 10
    Number of faces shared with processor 426 = 1
    Number of faces shared with processor 436 = 3
    Number of faces shared with processor 438 = 13
    Number of faces shared with processor 439 = 9
    Number of faces shared with processor 440 = 2
    Number of faces shared with processor 446 = 4
    Number of faces shared with processor 447 = 6
    Number of processor patches = 9
    Number of processor faces = 52
    Number of boundary faces = 8

Processor 438
    Number of cells = 23
    Number of faces shared with processor 401 = 3
    Number of faces shared with processor 404 = 5
    Number of faces shared with processor 405 = 1
    Number of faces shared with processor 425 = 2
    Number of faces shared with processor 426 = 4
    Number of faces shared with processor 436 = 15
    Number of faces shared with processor 437 = 13
    Number of faces shared with processor 439 = 3
    Number of faces shared with processor 440 = 8
    Number of processor patches = 9
    Number of processor faces = 54
    Number of boundary faces = 0

Processor 439
    Number of cells = 23
    Number of faces shared with processor 265 = 7
    Number of faces shared with processor 402 = 5
    Number of faces shared with processor 437 = 9
    Number of faces shared with processor 438 = 3
    Number of faces shared with processor 440 = 10
    Number of faces shared with processor 445 = 6
    Number of processor patches = 6
    Number of processor faces = 40
    Number of boundary faces = 12

Processor 440
    Number of cells = 23
    Number of faces shared with processor 261 = 2
    Number of faces shared with processor 264 = 9
    Number of faces shared with processor 265 = 1
    Number of faces shared with processor 401 = 2
    Number of faces shared with processor 402 = 1
    Number of faces shared with processor 403 = 4
    Number of faces shared with processor 434 = 6
    Number of faces shared with processor 436 = 5
    Number of faces shared with processor 437 = 2
    Number of faces shared with processor 438 = 8
    Number of faces shared with processor 439 = 10
    Number of faces shared with processor 444 = 4
    Number of processor patches = 12
    Number of processor faces = 54
    Number of boundary faces = 0

Processor 441
    Number of cells = 22
    Number of faces shared with processor 434 = 4
    Number of faces shared with processor 436 = 2
    Number of faces shared with processor 442 = 8
    Number of faces shared with processor 443 = 7
    Number of faces shared with processor 444 = 6
    Number of faces shared with processor 356 = 8
    Number of faces shared with processor 253 = 8
    Number of faces shared with processor 254 = 3
    Number of processor patches = 8
    Number of processor faces = 46
    Number of boundary faces = 4

Processor 442
    Number of cells = 23
    Number of faces shared with processor 427 = 4
    Number of faces shared with processor 428 = 2
    Number of faces shared with processor 441 = 8
    Number of faces shared with processor 443 = 14
    Number of faces shared with processor 444 = 5
    Number of faces shared with processor 446 = 3
    Number of faces shared with processor 447 = 4
    Number of faces shared with processor 354 = 4
    Number of faces shared with processor 356 = 2
    Number of faces shared with processor 254 = 2
    Number of processor patches = 10
    Number of processor faces = 48
    Number of boundary faces = 16

Processor 443
    Number of cells = 23
    Number of faces shared with processor 427 = 7
    Number of faces shared with processor 433 = 2
    Number of faces shared with processor 435 = 6
    Number of faces shared with processor 436 = 3
    Number of faces shared with processor 441 = 7
    Number of faces shared with processor 442 = 14
    Number of faces shared with processor 447 = 11
    Number of faces shared with processor 354 = 4
    Number of faces shared with processor 356 = 2
    Number of processor patches = 9
    Number of processor faces = 56
    Number of boundary faces = 0

Processor 444
    Number of cells = 23
    Number of faces shared with processor 256 = 9
    Number of faces shared with processor 436 = 2
    Number of faces shared with processor 440 = 4
    Number of faces shared with processor 441 = 6
    Number of faces shared with processor 442 = 5
    Number of faces shared with processor 445 = 10
    Number of faces shared with processor 446 = 2
    Number of faces shared with processor 447 = 8
    Number of faces shared with processor 254 = 2
    Number of faces shared with processor 255 = 1
    Number of processor patches = 10
    Number of processor faces = 49
    Number of boundary faces = 5

Processor 445
    Number of cells = 23
    Number of faces shared with processor 439 = 6
    Number of faces shared with processor 444 = 10
    Number of faces shared with processor 446 = 9
    Number of faces shared with processor 447 = 3
    Number of faces shared with processor 255 = 7
    Number of processor patches = 5
    Number of processor faces = 35
    Number of boundary faces = 17

Processor 446
    Number of cells = 23
    Number of faces shared with processor 432 = 7
    Number of faces shared with processor 433 = 4
    Number of faces shared with processor 437 = 4
    Number of faces shared with processor 442 = 3
    Number of faces shared with processor 444 = 2
    Number of faces shared with processor 445 = 9
    Number of faces shared with processor 447 = 13
    Number of processor patches = 7
    Number of processor faces = 42
    Number of boundary faces = 18

Processor 447
    Number of cells = 23
    Number of faces shared with processor 433 = 6
    Number of faces shared with processor 436 = 3
    Number of faces shared with processor 437 = 6
    Number of faces shared with processor 442 = 4
    Number of faces shared with processor 443 = 11
    Number of faces shared with processor 444 = 8
    Number of faces shared with processor 445 = 3
    Number of faces shared with processor 446 = 13
    Number of processor patches = 8
    Number of processor faces = 54
    Number of boundary faces = 0

Number of processor faces = 10987
Max number of cells = 23 (0.625% above average 22.8571)
Max number of processor patches = 17 (83.0769% above average 9.28571)
Max number of faces between processors = 68 (38.6366% above average 49.0491)

Time = 0

Processor 0: field transfer
Processor 1: field transfer
Processor 2: field transfer
Processor 3: field transfer
Processor 4: field transfer
Processor 5: field transfer
Processor 6: field transfer
Processor 7: field transfer
Processor 8: field transfer
Processor 9: field transfer
Processor 10: field transfer
Processor 11: field transfer
Processor 12: field transfer
Processor 13: field transfer
Processor 14: field transfer
Processor 15: field transfer
Processor 16: field transfer
Processor 17: field transfer
Processor 18: field transfer
Processor 19: field transfer
Processor 20: field transfer
Processor 21: field transfer
Processor 22: field transfer
Processor 23: field transfer
Processor 24: field transfer
Processor 25: field transfer
Processor 26: field transfer
Processor 27: field transfer
Processor 28: field transfer
Processor 29: field transfer
Processor 30: field transfer
Processor 31: field transfer
Processor 32: field transfer
Processor 33: field transfer
Processor 34: field transfer
Processor 35: field transfer
Processor 36: field transfer
Processor 37: field transfer
Processor 38: field transfer
Processor 39: field transfer
Processor 40: field transfer
Processor 41: field transfer
Processor 42: field transfer
Processor 43: field transfer
Processor 44: field transfer
Processor 45: field transfer
Processor 46: field transfer
Processor 47: field transfer
Processor 48: field transfer
Processor 49: field transfer
Processor 50: field transfer
Processor 51: field transfer
Processor 52: field transfer
Processor 53: field transfer
Processor 54: field transfer
Processor 55: field transfer
Processor 56: field transfer
Processor 57: field transfer
Processor 58: field transfer
Processor 59: field transfer
Processor 60: field transfer
Processor 61: field transfer
Processor 62: field transfer
Processor 63: field transfer
Processor 64: field transfer
Processor 65: field transfer
Processor 66: field transfer
Processor 67: field transfer
Processor 68: field transfer
Processor 69: field transfer
Processor 70: field transfer
Processor 71: field transfer
Processor 72: field transfer
Processor 73: field transfer
Processor 74: field transfer
Processor 75: field transfer
Processor 76: field transfer
Processor 77: field transfer
Processor 78: field transfer
Processor 79: field transfer
Processor 80: field transfer
Processor 81: field transfer
Processor 82: field transfer
Processor 83: field transfer
Processor 84: field transfer
Processor 85: field transfer
Processor 86: field transfer
Processor 87: field transfer
Processor 88: field transfer
Processor 89: field transfer
Processor 90: field transfer
Processor 91: field transfer
Processor 92: field transfer
Processor 93: field transfer
Processor 94: field transfer
Processor 95: field transfer
Processor 96: field transfer
Processor 97: field transfer
Processor 98: field transfer
Processor 99: field transfer
Processor 100: field transfer
Processor 101: field transfer
Processor 102: field transfer
Processor 103: field transfer
Processor 104: field transfer
Processor 105: field transfer
Processor 106: field transfer
Processor 107: field transfer
Processor 108: field transfer
Processor 109: field transfer
Processor 110: field transfer
Processor 111: field transfer
Processor 112: field transfer
Processor 113: field transfer
Processor 114: field transfer
Processor 115: field transfer
Processor 116: field transfer
Processor 117: field transfer
Processor 118: field transfer
Processor 119: field transfer
Processor 120: field transfer
Processor 121: field transfer
Processor 122: field transfer
Processor 123: field transfer
Processor 124: field transfer
Processor 125: field transfer
Processor 126: field transfer
Processor 127: field transfer
Processor 128: field transfer
Processor 129: field transfer
Processor 130: field transfer
Processor 131: field transfer
Processor 132: field transfer
Processor 133: field transfer
Processor 134: field transfer
Processor 135: field transfer
Processor 136: field transfer
Processor 137: field transfer
Processor 138: field transfer
Processor 139: field transfer
Processor 140: field transfer
Processor 141: field transfer
Processor 142: field transfer
Processor 143: field transfer
Processor 144: field transfer
Processor 145: field transfer
Processor 146: field transfer
Processor 147: field transfer
Processor 148: field transfer
Processor 149: field transfer
Processor 150: field transfer
Processor 151: field transfer
Processor 152: field transfer
Processor 153: field transfer
Processor 154: field transfer
Processor 155: field transfer
Processor 156: field transfer
Processor 157: field transfer
Processor 158: field transfer
Processor 159: field transfer
Processor 160: field transfer
Processor 161: field transfer
Processor 162: field transfer
Processor 163: field transfer
Processor 164: field transfer
Processor 165: field transfer
Processor 166: field transfer
Processor 167: field transfer
Processor 168: field transfer
Processor 169: field transfer
Processor 170: field transfer
Processor 171: field transfer
Processor 172: field transfer
Processor 173: field transfer
Processor 174: field transfer
Processor 175: field transfer
Processor 176: field transfer
Processor 177: field transfer
Processor 178: field transfer
Processor 179: field transfer
Processor 180: field transfer
Processor 181: field transfer
Processor 182: field transfer
Processor 183: field transfer
Processor 184: field transfer
Processor 185: field transfer
Processor 186: field transfer
Processor 187: field transfer
Processor 188: field transfer
Processor 189: field transfer
Processor 190: field transfer
Processor 191: field transfer
Processor 192: field transfer
Processor 193: field transfer
Processor 194: field transfer
Processor 195: field transfer
Processor 196: field transfer
Processor 197: field transfer
Processor 198: field transfer
Processor 199: field transfer
Processor 200: field transfer
Processor 201: field transfer
Processor 202: field transfer
Processor 203: field transfer
Processor 204: field transfer
Processor 205: field transfer
Processor 206: field transfer
Processor 207: field transfer
Processor 208: field transfer
Processor 209: field transfer
Processor 210: field transfer
Processor 211: field transfer
Processor 212: field transfer
Processor 213: field transfer
Processor 214: field transfer
Processor 215: field transfer
Processor 216: field transfer
Processor 217: field transfer
Processor 218: field transfer
Processor 219: field transfer
Processor 220: field transfer
Processor 221: field transfer
Processor 222: field transfer
Processor 223: field transfer
Processor 224: field transfer
Processor 225: field transfer
Processor 226: field transfer
Processor 227: field transfer
Processor 228: field transfer
Processor 229: field transfer
Processor 230: field transfer
Processor 231: field transfer
Processor 232: field transfer
Processor 233: field transfer
Processor 234: field transfer
Processor 235: field transfer
Processor 236: field transfer
Processor 237: field transfer
Processor 238: field transfer
Processor 239: field transfer
Processor 240: field transfer
Processor 241: field transfer
Processor 242: field transfer
Processor 243: field transfer
Processor 244: field transfer
Processor 245: field transfer
Processor 246: field transfer
Processor 247: field transfer
Processor 248: field transfer
Processor 249: field transfer
Processor 250: field transfer
Processor 251: field transfer
Processor 252: field transfer
Processor 253: field transfer
Processor 254: field transfer
Processor 255: field transfer
Processor 256: field transfer
Processor 257: field transfer
Processor 258: field transfer
Processor 259: field transfer
Processor 260: field transfer
Processor 261: field transfer
Processor 262: field transfer
Processor 263: field transfer
Processor 264: field transfer
Processor 265: field transfer
Processor 266: field transfer
Processor 267: field transfer
Processor 268: field transfer
Processor 269: field transfer
Processor 270: field transfer
Processor 271: field transfer
Processor 272: field transfer
Processor 273: field transfer
Processor 274: field transfer
Processor 275: field transfer
Processor 276: field transfer
Processor 277: field transfer
Processor 278: field transfer
Processor 279: field transfer
Processor 280: field transfer
Processor 281: field transfer
Processor 282: field transfer
Processor 283: field transfer
Processor 284: field transfer
Processor 285: field transfer
Processor 286: field transfer
Processor 287: field transfer
Processor 288: field transfer
Processor 289: field transfer
Processor 290: field transfer
Processor 291: field transfer
Processor 292: field transfer
Processor 293: field transfer
Processor 294: field transfer
Processor 295: field transfer
Processor 296: field transfer
Processor 297: field transfer
Processor 298: field transfer
Processor 299: field transfer
Processor 300: field transfer
Processor 301: field transfer
Processor 302: field transfer
Processor 303: field transfer
Processor 304: field transfer
Processor 305: field transfer
Processor 306: field transfer
Processor 307: field transfer
Processor 308: field transfer
Processor 309: field transfer
Processor 310: field transfer
Processor 311: field transfer
Processor 312: field transfer
Processor 313: field transfer
Processor 314: field transfer
Processor 315: field transfer
Processor 316: field transfer
Processor 317: field transfer
Processor 318: field transfer
Processor 319: field transfer
Processor 320: field transfer
Processor 321: field transfer
Processor 322: field transfer
Processor 323: field transfer
Processor 324: field transfer
Processor 325: field transfer
Processor 326: field transfer
Processor 327: field transfer
Processor 328: field transfer
Processor 329: field transfer
Processor 330: field transfer
Processor 331: field transfer
Processor 332: field transfer
Processor 333: field transfer
Processor 334: field transfer
Processor 335: field transfer
Processor 336: field transfer
Processor 337: field transfer
Processor 338: field transfer
Processor 339: field transfer
Processor 340: field transfer
Processor 341: field transfer
Processor 342: field transfer
Processor 343: field transfer
Processor 344: field transfer
Processor 345: field transfer
Processor 346: field transfer
Processor 347: field transfer
Processor 348: field transfer
Processor 349: field transfer
Processor 350: field transfer
Processor 351: field transfer
Processor 352: field transfer
Processor 353: field transfer
Processor 354: field transfer
Processor 355: field transfer
Processor 356: field transfer
Processor 357: field transfer
Processor 358: field transfer
Processor 359: field transfer
Processor 360: field transfer
Processor 361: field transfer
Processor 362: field transfer
Processor 363: field transfer
Processor 364: field transfer
Processor 365: field transfer
Processor 366: field transfer
Processor 367: field transfer
Processor 368: field transfer
Processor 369: field transfer
Processor 370: field transfer
Processor 371: field transfer
Processor 372: field transfer
Processor 373: field transfer
Processor 374: field transfer
Processor 375: field transfer
Processor 376: field transfer
Processor 377: field transfer
Processor 378: field transfer
Processor 379: field transfer
Processor 380: field transfer
Processor 381: field transfer
Processor 382: field transfer
Processor 383: field transfer
Processor 384: field transfer
Processor 385: field transfer
Processor 386: field transfer
Processor 387: field transfer
Processor 388: field transfer
Processor 389: field transfer
Processor 390: field transfer
Processor 391: field transfer
Processor 392: field transfer
Processor 393: field transfer
Processor 394: field transfer
Processor 395: field transfer
Processor 396: field transfer
Processor 397: field transfer
Processor 398: field transfer
Processor 399: field transfer
Processor 400: field transfer
Processor 401: field transfer
Processor 402: field transfer
Processor 403: field transfer
Processor 404: field transfer
Processor 405: field transfer
Processor 406: field transfer
Processor 407: field transfer
Processor 408: field transfer
Processor 409: field transfer
Processor 410: field transfer
Processor 411: field transfer
Processor 412: field transfer
Processor 413: field transfer
Processor 414: field transfer
Processor 415: field transfer
Processor 416: field transfer
Processor 417: field transfer
Processor 418: field transfer
Processor 419: field transfer
Processor 420: field transfer
Processor 421: field transfer
Processor 422: field transfer
Processor 423: field transfer
Processor 424: field transfer
Processor 425: field transfer
Processor 426: field transfer
Processor 427: field transfer
Processor 428: field transfer
Processor 429: field transfer
Processor 430: field transfer
Processor 431: field transfer
Processor 432: field transfer
Processor 433: field transfer
Processor 434: field transfer
Processor 435: field transfer
Processor 436: field transfer
Processor 437: field transfer
Processor 438: field transfer
Processor 439: field transfer
Processor 440: field transfer
Processor 441: field transfer
Processor 442: field transfer
Processor 443: field transfer
Processor 444: field transfer
Processor 445: field transfer
Processor 446: field transfer
Processor 447: field transfer

End

