Cleaning /rds/user/hpcbras1/hpc-work/csd3/cclake-roce-gcc9-ompi3-ucx/openfoam/Openfoam_Mbike_2 case
Running surfaceFeatureExtract on /rds/user/hpcbras1/hpc-work/csd3/cclake-roce-gcc9-ompi3-ucx/openfoam/Openfoam_Mbike_2
Running blockMesh on /rds/user/hpcbras1/hpc-work/csd3/cclake-roce-gcc9-ompi3-ucx/openfoam/Openfoam_Mbike_2
Running decomposePar on /rds/user/hpcbras1/hpc-work/csd3/cclake-roce-gcc9-ompi3-ucx/openfoam/Openfoam_Mbike_2
Running snappyHexMesh in parallel on /rds/user/hpcbras1/hpc-work/csd3/cclake-roce-gcc9-ompi3-ucx/openfoam/Openfoam_Mbike_2 using 64 processes
/*---------------------------------------------------------------------------*\
  =========                 |
  \\      /  F ield         | OpenFOAM: The Open Source CFD Toolbox
   \\    /   O peration     | Website:  https://openfoam.org
    \\  /    A nd           | Version:  7
     \\/     M anipulation  |
\*---------------------------------------------------------------------------*/
Build  : 7
Exec   : /home/hpcbras1/spack/opt/spack/linux-scientific7-skylake_avx512/gcc-9.1.0/openfoam-org-7-dahapwszurcwmfsxldhpukzh3tv4odmy/platforms/linux64GccDPInt32-spack/bin/simpleFoam -parallel
Date   : Oct 14 2020
Time   : 12:02:20
Host   : "cpu-p-285"
PID    : 196336
I/O    : uncollated
Case   : /rds/user/hpcbras1/hpc-work/csd3/cclake-roce-gcc9-ompi3-ucx/openfoam/Openfoam_Mbike_2
nProcs : 64
Slaves : 
63
(
"cpu-p-285.196337"
"cpu-p-285.196338"
"cpu-p-285.196339"
"cpu-p-285.196340"
"cpu-p-285.196341"
"cpu-p-285.196342"
"cpu-p-285.196343"
"cpu-p-285.196344"
"cpu-p-285.196345"
"cpu-p-285.196346"
"cpu-p-285.196347"
"cpu-p-285.196348"
"cpu-p-285.196349"
"cpu-p-285.196350"
"cpu-p-285.196351"
"cpu-p-285.196352"
"cpu-p-285.196353"
"cpu-p-285.196354"
"cpu-p-285.196355"
"cpu-p-285.196356"
"cpu-p-285.196357"
"cpu-p-285.196358"
"cpu-p-285.196359"
"cpu-p-285.196360"
"cpu-p-285.196361"
"cpu-p-285.196362"
"cpu-p-285.196363"
"cpu-p-285.196364"
"cpu-p-285.196365"
"cpu-p-285.196366"
"cpu-p-285.196367"
"cpu-p-286.285073"
"cpu-p-286.285074"
"cpu-p-286.285075"
"cpu-p-286.285076"
"cpu-p-286.285077"
"cpu-p-286.285078"
"cpu-p-286.285079"
"cpu-p-286.285080"
"cpu-p-286.285081"
"cpu-p-286.285082"
"cpu-p-286.285083"
"cpu-p-286.285084"
"cpu-p-286.285085"
"cpu-p-286.285086"
"cpu-p-286.285087"
"cpu-p-286.285088"
"cpu-p-286.285089"
"cpu-p-286.285090"
"cpu-p-286.285091"
"cpu-p-286.285092"
"cpu-p-286.285093"
"cpu-p-286.285094"
"cpu-p-286.285095"
"cpu-p-286.285096"
"cpu-p-286.285097"
"cpu-p-286.285098"
"cpu-p-286.285099"
"cpu-p-286.285100"
"cpu-p-286.285101"
"cpu-p-286.285102"
"cpu-p-286.285103"
"cpu-p-286.285104"
)

Pstream initialized with:
    floatTransfer      : 0
    nProcsSimpleSum    : 0
    commsType          : nonBlocking
    polling iterations : 0
sigFpe : Enabling floating point exception trapping (FOAM_SIGFPE).
fileModificationChecking : Monitoring run-time modified files using timeStampMaster (fileModificationSkew 10)
allowSystemOperations : Allowing user-supplied system call operations

// * * * * * * * * * * * * * * * * * * * * * * * * * * * * * * * * * * * * * //
Create time

Create mesh for time = 0


SIMPLE: No convergence criteria found

Reading field p

Reading field U

Reading/calculating face flux field phi

Selecting incompressible transport model Newtonian
Selecting turbulence model type RAS
Selecting RAS turbulence model kOmegaSST
Selecting patchDistMethod meshWave
RAS
{
    RASModel        kOmegaSST;
    turbulence      on;
    printCoeffs     on;
    alphaK1         0.85;
    alphaK2         1;
    alphaOmega1     0.5;
    alphaOmega2     0.856;
    gamma1          0.555556;
    gamma2          0.44;
    beta1           0.075;
    beta2           0.0828;
    betaStar        0.09;
    a1              0.31;
    b1              1;
    c1              10;
    F3              false;
}

No MRF models present

No finite volume options present

Starting time loop

Reading surface description:
    yNormal

forces forceCoeffs1:
    Not including porosity effects
forceCoeffs forceCoeffs1:
    Not including porosity effects
Time = 1

smoothSolver:  Solving for Ux, Initial residual = 1, Final residual = 0.0987908, No Iterations 13
smoothSolver:  Solving for Uy, Initial residual = 1, Final residual = 0.0905891, No Iterations 12
smoothSolver:  Solving for Uz, Initial residual = 1, Final residual = 0.0841638, No Iterations 13
GAMG:  Solving for p, Initial residual = 1, Final residual = 0.00991554, No Iterations 6
time step continuity errors : sum local = 0.000700978, global = 9.10162e-07, cumulative = 9.10162e-07
smoothSolver:  Solving for omega, Initial residual = 0.0286046, Final residual = 0.00123297, No Iterations 3
bounding omega, min: -1210.07 max: 108530 average: 501.55
smoothSolver:  Solving for k, Initial residual = 1, Final residual = 0.0498179, No Iterations 4
ExecutionTime = 2.12 s  ClockTime = 2 s

forceCoeffs forceCoeffs1 write:
    Cm    = 12.2713
    Cd    = 26.5162
    Cl    = -1.76552
    Cl(f) = 11.3886
    Cl(r) = -13.1541

Time = 2

smoothSolver:  Solving for Ux, Initial residual = 0.10695, Final residual = 0.00958623, No Iterations 11
smoothSolver:  Solving for Uy, Initial residual = 0.516876, Final residual = 0.0503929, No Iterations 10
smoothSolver:  Solving for Uz, Initial residual = 0.391803, Final residual = 0.0376665, No Iterations 10
GAMG:  Solving for p, Initial residual = 0.240854, Final residual = 0.00100636, No Iterations 5
time step continuity errors : sum local = 0.00430271, global = -1.32765e-05, cumulative = -1.23663e-05
smoothSolver:  Solving for omega, Initial residual = 0.999999, Final residual = 0.0953741, No Iterations 3
smoothSolver:  Solving for k, Initial residual = 0.972839, Final residual = 7.61133e-08, No Iterations 1
ExecutionTime = 2.34 s  ClockTime = 3 s

forceCoeffs forceCoeffs1 write:
    Cm    = 4.70312
    Cd    = 10.733
    Cl    = -0.364045
    Cl(f) = 4.5211
    Cl(r) = -4.88515

Time = 3

smoothSolver:  Solving for Ux, Initial residual = 0.133287, Final residual = 0.0106795, No Iterations 5
smoothSolver:  Solving for Uy, Initial residual = 0.563424, Final residual = 0.0554298, No Iterations 5
smoothSolver:  Solving for Uz, Initial residual = 0.639483, Final residual = 0.047717, No Iterations 5
GAMG:  Solving for p, Initial residual = 0.142325, Final residual = 0.000895584, No Iterations 5
time step continuity errors : sum local = 0.00321245, global = 2.99184e-05, cumulative = 1.75521e-05
smoothSolver:  Solving for omega, Initial residual = 0.538464, Final residual = 3.58361e-13, No Iterations 1
bounding omega, min: -2.74386e+08 max: 7.31787e+15 average: 1.01582e+10
smoothSolver:  Solving for k, Initial residual = 0.114663, Final residual = 9.25201e-08, No Iterations 1
ExecutionTime = 2.57 s  ClockTime = 3 s

forceCoeffs forceCoeffs1 write:
    Cm    = 2.95755
    Cd    = 6.95858
    Cl    = -1.46237
    Cl(f) = 2.22636
    Cl(r) = -3.68874

Time = 4

smoothSolver:  Solving for Ux, Initial residual = 0.0623797, Final residual = 0.00585173, No Iterations 5
smoothSolver:  Solving for Uy, Initial residual = 0.470806, Final residual = 0.0461005, No Iterations 5
smoothSolver:  Solving for Uz, Initial residual = 0.463178, Final residual = 0.0411084, No Iterations 5
GAMG:  Solving for p, Initial residual = 0.0774716, Final residual = 0.00036648, No Iterations 5
time step continuity errors : sum local = 0.00157901, global = 1.1728e-05, cumulative = 2.92802e-05
smoothSolver:  Solving for omega, Initial residual = 0.538464, Final residual = 1.14525e-12, No Iterations 1
bounding omega, min: -4.82945e+06 max: 2.19536e+15 average: 3.04757e+09
smoothSolver:  Solving for k, Initial residual = 0.0269159, Final residual = 2.48092e-07, No Iterations 1
ExecutionTime = 2.79 s  ClockTime = 3 s

forceCoeffs forceCoeffs1 write:
    Cm    = 1.37747
    Cd    = 3.54913
    Cl    = -0.897123
    Cl(f) = 0.928913
    Cl(r) = -1.82604

Time = 5

smoothSolver:  Solving for Ux, Initial residual = 0.0262175, Final residual = 0.00204329, No Iterations 7
smoothSolver:  Solving for Uy, Initial residual = 0.365195, Final residual = 0.0329381, No Iterations 6
smoothSolver:  Solving for Uz, Initial residual = 0.321776, Final residual = 0.0291285, No Iterations 6
GAMG:  Solving for p, Initial residual = 0.0583017, Final residual = 0.000509064, No Iterations 4
time step continuity errors : sum local = 0.00251189, global = 2.13961e-05, cumulative = 5.06763e-05
smoothSolver:  Solving for omega, Initial residual = 0.538464, Final residual = 3.0917e-12, No Iterations 1
bounding omega, min: -164557 max: 6.58609e+14 average: 9.14275e+08
smoothSolver:  Solving for k, Initial residual = 0.00693066, Final residual = 7.43278e-07, No Iterations 1
ExecutionTime = 3.02 s  ClockTime = 3 s

forceCoeffs forceCoeffs1 write:
    Cm    = 0.719369
    Cd    = 1.88309
    Cl    = -0.416928
    Cl(f) = 0.510905
    Cl(r) = -0.927833

Time = 6

smoothSolver:  Solving for Ux, Initial residual = 0.0188533, Final residual = 0.00144125, No Iterations 7
smoothSolver:  Solving for Uy, Initial residual = 0.315156, Final residual = 0.0306189, No Iterations 6
smoothSolver:  Solving for Uz, Initial residual = 0.263837, Final residual = 0.0237718, No Iterations 6
GAMG:  Solving for p, Initial residual = 0.0507789, Final residual = 0.000402951, No Iterations 4
time step continuity errors : sum local = 0.00191849, global = 2.86335e-05, cumulative = 7.93098e-05
smoothSolver:  Solving for omega, Initial residual = 0.538464, Final residual = 7.34855e-12, No Iterations 1
bounding omega, min: -17.9043 max: 1.97583e+14 average: 2.74283e+08
smoothSolver:  Solving for k, Initial residual = 0.00185543, Final residual = 2.20595e-06, No Iterations 1
ExecutionTime = 3.32 s  ClockTime = 4 s

forceCoeffs forceCoeffs1 write:
    Cm    = 0.44847
    Cd    = 1.14645
    Cl    = -0.138464
    Cl(f) = 0.379238
    Cl(r) = -0.517702

Time = 7

smoothSolver:  Solving for Ux, Initial residual = 0.0136717, Final residual = 0.00112697, No Iterations 7
smoothSolver:  Solving for Uy, Initial residual = 0.266976, Final residual = 0.0215891, No Iterations 7
smoothSolver:  Solving for Uz, Initial residual = 0.230163, Final residual = 0.0225327, No Iterations 6
GAMG:  Solving for p, Initial residual = 0.046313, Final residual = 0.000339862, No Iterations 4
time step continuity errors : sum local = 0.00156656, global = 2.94735e-05, cumulative = 0.000108783
smoothSolver:  Solving for omega, Initial residual = 0.538464, Final residual = 2.56539e-11, No Iterations 1
smoothSolver:  Solving for k, Initial residual = 0.000526613, Final residual = 6.81695e-06, No Iterations 1
ExecutionTime = 3.62 s  ClockTime = 4 s

forceCoeffs forceCoeffs1 write:
    Cm    = 0.340526
    Cd    = 0.821485
    Cl    = -0.0474093
    Cl(f) = 0.316821
    Cl(r) = -0.364231

Time = 8

smoothSolver:  Solving for Ux, Initial residual = 0.0115204, Final residual = 0.00098719, No Iterations 7
smoothSolver:  Solving for Uy, Initial residual = 0.231257, Final residual = 0.0191349, No Iterations 7
smoothSolver:  Solving for Uz, Initial residual = 0.218526, Final residual = 0.0170627, No Iterations 7
GAMG:  Solving for p, Initial residual = 0.0436799, Final residual = 0.000310002, No Iterations 4
time step continuity errors : sum local = 0.00137848, global = 3.32606e-05, cumulative = 0.000142044
smoothSolver:  Solving for omega, Initial residual = 0.538464, Final residual = 1.10501e-10, No Iterations 1
smoothSolver:  Solving for k, Initial residual = 0.000196907, Final residual = 9.64576e-06, No Iterations 2
ExecutionTime = 3.83 s  ClockTime = 4 s

forceCoeffs forceCoeffs1 write:
    Cm    = 0.298453
    Cd    = 0.705468
    Cl    = -0.0343164
    Cl(f) = 0.281295
    Cl(r) = -0.315612

Time = 9

smoothSolver:  Solving for Ux, Initial residual = 0.00966664, Final residual = 0.000884539, No Iterations 7
smoothSolver:  Solving for Uy, Initial residual = 0.20089, Final residual = 0.0170353, No Iterations 7
smoothSolver:  Solving for Uz, Initial residual = 0.21531, Final residual = 0.0177622, No Iterations 7
GAMG:  Solving for p, Initial residual = 0.0416514, Final residual = 0.000294957, No Iterations 4
time step continuity errors : sum local = 0.00126733, global = 2.42063e-05, cumulative = 0.00016625
smoothSolver:  Solving for omega, Initial residual = 0.538464, Final residual = 3.99693e-10, No Iterations 1
smoothSolver:  Solving for k, Initial residual = 0.000212344, Final residual = 1.40295e-05, No Iterations 3
ExecutionTime = 4.02 s  ClockTime = 4 s

forceCoeffs forceCoeffs1 write:
    Cm    = 0.271406
    Cd    = 0.603349
    Cl    = -0.0569163
    Cl(f) = 0.242948
    Cl(r) = -0.299864

Time = 10

smoothSolver:  Solving for Ux, Initial residual = 0.0088021, Final residual = 0.000820082, No Iterations 7
smoothSolver:  Solving for Uy, Initial residual = 0.181725, Final residual = 0.0157957, No Iterations 7
smoothSolver:  Solving for Uz, Initial residual = 0.206198, Final residual = 0.017608, No Iterations 7
GAMG:  Solving for p, Initial residual = 0.0402713, Final residual = 0.000277176, No Iterations 4
time step continuity errors : sum local = 0.00114436, global = 5.0475e-06, cumulative = 0.000171298
smoothSolver:  Solving for omega, Initial residual = 0.538464, Final residual = 1.55045e-09, No Iterations 1
smoothSolver:  Solving for k, Initial residual = 0.000529135, Final residual = 4.16335e-05, No Iterations 3
ExecutionTime = 4.23 s  ClockTime = 4 s

forceCoeffs forceCoeffs1 write:
    Cm    = 0.249128
    Cd    = 0.539074
    Cl    = -0.0557638
    Cl(f) = 0.221246
    Cl(r) = -0.27701

Time = 11

smoothSolver:  Solving for Ux, Initial residual = 0.0077401, Final residual = 0.00076457, No Iterations 7
smoothSolver:  Solving for Uy, Initial residual = 0.165528, Final residual = 0.0152533, No Iterations 7
smoothSolver:  Solving for Uz, Initial residual = 0.187634, Final residual = 0.0167899, No Iterations 7
GAMG:  Solving for p, Initial residual = 0.0392297, Final residual = 0.000268847, No Iterations 4
time step continuity errors : sum local = 0.00106629, global = -7.25331e-06, cumulative = 0.000164044
smoothSolver:  Solving for omega, Initial residual = 0.538464, Final residual = 6.51872e-09, No Iterations 1
smoothSolver:  Solving for k, Initial residual = 0.00138927, Final residual = 0.000108604, No Iterations 3
bounding k, min: -2.19978e-06 max: 229.695 average: 0.557429
ExecutionTime = 4.42 s  ClockTime = 5 s

forceCoeffs forceCoeffs1 write:
    Cm    = 0.231714
    Cd    = 0.501248
    Cl    = -0.0619645
    Cl(f) = 0.200731
    Cl(r) = -0.262696

Time = 12

smoothSolver:  Solving for Ux, Initial residual = 0.00712136, Final residual = 0.000562311, No Iterations 8
smoothSolver:  Solving for Uy, Initial residual = 0.153444, Final residual = 0.0146082, No Iterations 7
smoothSolver:  Solving for Uz, Initial residual = 0.17137, Final residual = 0.015895, No Iterations 7
GAMG:  Solving for p, Initial residual = 0.0386242, Final residual = 0.000258986, No Iterations 4
time step continuity errors : sum local = 0.000981379, global = -1.16e-05, cumulative = 0.000152444
smoothSolver:  Solving for omega, Initial residual = 0.538463, Final residual = 2.75854e-08, No Iterations 1
smoothSolver:  Solving for k, Initial residual = 0.00286346, Final residual = 0.000219486, No Iterations 3
ExecutionTime = 4.63 s  ClockTime = 5 s

forceCoeffs forceCoeffs1 write:
    Cm    = 0.221238
    Cd    = 0.484061
    Cl    = -0.0545946
    Cl(f) = 0.193941
    Cl(r) = -0.248535

Time = 13

smoothSolver:  Solving for Ux, Initial residual = 0.00663451, Final residual = 0.000539452, No Iterations 8
smoothSolver:  Solving for Uy, Initial residual = 0.142557, Final residual = 0.0140129, No Iterations 7
smoothSolver:  Solving for Uz, Initial residual = 0.161323, Final residual = 0.0156401, No Iterations 7
GAMG:  Solving for p, Initial residual = 0.0381186, Final residual = 0.000251911, No Iterations 4
time step continuity errors : sum local = 0.000909258, global = -1.25539e-05, cumulative = 0.00013989
smoothSolver:  Solving for omega, Initial residual = 0.538459, Final residual = 9.91563e-08, No Iterations 1
smoothSolver:  Solving for k, Initial residual = 0.00423291, Final residual = 0.000325262, No Iterations 3
bounding k, min: -2.76642e-07 max: 315.609 average: 0.595433
ExecutionTime = 4.84 s  ClockTime = 5 s

forceCoeffs forceCoeffs1 write:
    Cm    = 0.209574
    Cd    = 0.464801
    Cl    = -0.0455561
    Cl(f) = 0.186795
    Cl(r) = -0.232352

Time = 14

smoothSolver:  Solving for Ux, Initial residual = 0.00624621, Final residual = 0.000525571, No Iterations 8
smoothSolver:  Solving for Uy, Initial residual = 0.133293, Final residual = 0.010441, No Iterations 8
smoothSolver:  Solving for Uz, Initial residual = 0.154861, Final residual = 0.0121179, No Iterations 8
GAMG:  Solving for p, Initial residual = 0.0377505, Final residual = 0.000247607, No Iterations 4
time step continuity errors : sum local = 0.000853851, global = -1.18993e-05, cumulative = 0.000127991
smoothSolver:  Solving for omega, Initial residual = 0.538448, Final residual = 3.15492e-07, No Iterations 1
smoothSolver:  Solving for k, Initial residual = 0.00514936, Final residual = 0.000392666, No Iterations 3
bounding k, min: -1.32682e-08 max: 246.029 average: 0.611345
ExecutionTime = 5.03 s  ClockTime = 5 s

forceCoeffs forceCoeffs1 write:
    Cm    = 0.202294
    Cd    = 0.459343
    Cl    = -0.0340253
    Cl(f) = 0.185281
    Cl(r) = -0.219307

Time = 15

smoothSolver:  Solving for Ux, Initial residual = 0.00602408, Final residual = 0.000522708, No Iterations 8
smoothSolver:  Solving for Uy, Initial residual = 0.126611, Final residual = 0.0102093, No Iterations 8
smoothSolver:  Solving for Uz, Initial residual = 0.146474, Final residual = 0.0117766, No Iterations 8
GAMG:  Solving for p, Initial residual = 0.037312, Final residual = 0.000248486, No Iterations 4
time step continuity errors : sum local = 0.000816229, global = -8.75579e-06, cumulative = 0.000119235
smoothSolver:  Solving for omega, Initial residual = 0.538408, Final residual = 8.92464e-07, No Iterations 1
smoothSolver:  Solving for k, Initial residual = 0.00546114, Final residual = 0.000432383, No Iterations 3
ExecutionTime = 5.24 s  ClockTime = 6 s

forceCoeffs forceCoeffs1 write:
    Cm    = 0.19105
    Cd    = 0.438605
    Cl    = -0.0137274
    Cl(f) = 0.184186
    Cl(r) = -0.197913

Time = 16

smoothSolver:  Solving for Ux, Initial residual = 0.00573585, Final residual = 0.000523472, No Iterations 8
smoothSolver:  Solving for Uy, Initial residual = 0.118943, Final residual = 0.0100471, No Iterations 8
smoothSolver:  Solving for Uz, Initial residual = 0.13698, Final residual = 0.011514, No Iterations 8
GAMG:  Solving for p, Initial residual = 0.036916, Final residual = 0.000251701, No Iterations 4
time step continuity errors : sum local = 0.00078908, global = -5.11276e-06, cumulative = 0.000114123
smoothSolver:  Solving for omega, Initial residual = 0.538253, Final residual = 2.28798e-06, No Iterations 1
smoothSolver:  Solving for k, Initial residual = 0.00538297, Final residual = 0.000454506, No Iterations 3
bounding k, min: -5.81152e-10 max: 502.528 average: 0.635985
ExecutionTime = 5.44 s  ClockTime = 6 s

forceCoeffs forceCoeffs1 write:
    Cm    = 0.184341
    Cd    = 0.43755
    Cl    = -0.000635283
    Cl(f) = 0.184023
    Cl(r) = -0.184659

Time = 17

smoothSolver:  Solving for Ux, Initial residual = 0.0055534, Final residual = 0.000523652, No Iterations 8
smoothSolver:  Solving for Uy, Initial residual = 0.113368, Final residual = 0.0099624, No Iterations 8
smoothSolver:  Solving for Uz, Initial residual = 0.131219, Final residual = 0.0114668, No Iterations 8
GAMG:  Solving for p, Initial residual = 0.0365866, Final residual = 0.000263015, No Iterations 4
time step continuity errors : sum local = 0.000788547, global = -1.06149e-06, cumulative = 0.000113061
smoothSolver:  Solving for omega, Initial residual = 0.537484, Final residual = 6.30631e-06, No Iterations 1
smoothSolver:  Solving for k, Initial residual = 0.00578774, Final residual = 0.000471763, No Iterations 3
ExecutionTime = 5.67 s  ClockTime = 6 s

forceCoeffs forceCoeffs1 write:
    Cm    = 0.17875
    Cd    = 0.43408
    Cl    = 0.00831014
    Cl(f) = 0.182905
    Cl(r) = -0.174595

Time = 18

smoothSolver:  Solving for Ux, Initial residual = 0.00536965, Final residual = 0.000522502, No Iterations 8
smoothSolver:  Solving for Uy, Initial residual = 0.110711, Final residual = 0.00999612, No Iterations 8
smoothSolver:  Solving for Uz, Initial residual = 0.127095, Final residual = 0.0115656, No Iterations 8
GAMG:  Solving for p, Initial residual = 0.0362441, Final residual = 0.000264884, No Iterations 4
time step continuity errors : sum local = 0.000763029, global = 2.18613e-06, cumulative = 0.000115247
smoothSolver:  Solving for omega, Initial residual = 0.532222, Final residual = 2.10688e-05, No Iterations 1
smoothSolver:  Solving for k, Initial residual = 0.00573562, Final residual = 0.000495106, No Iterations 3
ExecutionTime = 5.89 s  ClockTime = 6 s

forceCoeffs forceCoeffs1 write:
    Cm    = 0.17447
    Cd    = 0.430911
    Cl    = 0.0108486
    Cl(f) = 0.179894
    Cl(r) = -0.169045

Time = 19

smoothSolver:  Solving for Ux, Initial residual = 0.00521449, Final residual = 0.000519582, No Iterations 8
smoothSolver:  Solving for Uy, Initial residual = 0.108638, Final residual = 0.0100632, No Iterations 8
smoothSolver:  Solving for Uz, Initial residual = 0.122672, Final residual = 0.0115556, No Iterations 8
GAMG:  Solving for p, Initial residual = 0.0356997, Final residual = 0.000265041, No Iterations 4
time step continuity errors : sum local = 0.000733458, global = 4.53207e-06, cumulative = 0.000119779
smoothSolver:  Solving for omega, Initial residual = 0.489225, Final residual = 8.43633e-05, No Iterations 1
smoothSolver:  Solving for k, Initial residual = 0.00591837, Final residual = 0.00052454, No Iterations 3
ExecutionTime = 6.09 s  ClockTime = 6 s

forceCoeffs forceCoeffs1 write:
    Cm    = 0.171302
    Cd    = 0.424068
    Cl    = 0.00627757
    Cl(f) = 0.174441
    Cl(r) = -0.168163

Time = 20

smoothSolver:  Solving for Ux, Initial residual = 0.00500942, Final residual = 0.000402262, No Iterations 9
smoothSolver:  Solving for Uy, Initial residual = 0.106796, Final residual = 0.0101186, No Iterations 8
smoothSolver:  Solving for Uz, Initial residual = 0.116587, Final residual = 0.011359, No Iterations 8
GAMG:  Solving for p, Initial residual = 0.0349566, Final residual = 0.000270306, No Iterations 4
time step continuity errors : sum local = 0.00072229, global = 5.66769e-06, cumulative = 0.000125447
smoothSolver:  Solving for omega, Initial residual = 0.268802, Final residual = 0.00027383, No Iterations 1
smoothSolver:  Solving for k, Initial residual = 0.00583678, Final residual = 0.000549457, No Iterations 3
ExecutionTime = 6.3 s  ClockTime = 7 s

forceCoeffs forceCoeffs1 write:
    Cm    = 0.169333
    Cd    = 0.419192
    Cl    = 0.000554715
    Cl(f) = 0.169611
    Cl(r) = -0.169056

Time = 21

smoothSolver:  Solving for Ux, Initial residual = 0.0048038, Final residual = 0.000393617, No Iterations 9
smoothSolver:  Solving for Uy, Initial residual = 0.105624, Final residual = 0.0102734, No Iterations 8
smoothSolver:  Solving for Uz, Initial residual = 0.112019, Final residual = 0.00879832, No Iterations 9
GAMG:  Solving for p, Initial residual = 0.0340476, Final residual = 0.000270921, No Iterations 4
time step continuity errors : sum local = 0.000700752, global = 5.43444e-06, cumulative = 0.000130882
smoothSolver:  Solving for omega, Initial residual = 0.0470165, Final residual = 0.000354844, No Iterations 1
smoothSolver:  Solving for k, Initial residual = 0.0058119, Final residual = 0.000568174, No Iterations 3
ExecutionTime = 6.54 s  ClockTime = 7 s

forceCoeffs forceCoeffs1 write:
    Cm    = 0.167911
    Cd    = 0.419348
    Cl    = -0.00358034
    Cl(f) = 0.166121
    Cl(r) = -0.169701

Time = 22

smoothSolver:  Solving for Ux, Initial residual = 0.00457866, Final residual = 0.000386024, No Iterations 9
smoothSolver:  Solving for Uy, Initial residual = 0.104754, Final residual = 0.00818784, No Iterations 9
smoothSolver:  Solving for Uz, Initial residual = 0.106499, Final residual = 0.0085975, No Iterations 9
GAMG:  Solving for p, Initial residual = 0.03324, Final residual = 0.000265105, No Iterations 4
time step continuity errors : sum local = 0.000665296, global = 5.20159e-06, cumulative = 0.000136083
smoothSolver:  Solving for omega, Initial residual = 0.00548477, Final residual = 0.00032442, No Iterations 1
smoothSolver:  Solving for k, Initial residual = 0.00595701, Final residual = 0.000583679, No Iterations 3
ExecutionTime = 6.75 s  ClockTime = 7 s

forceCoeffs forceCoeffs1 write:
    Cm    = 0.166192
    Cd    = 0.419252
    Cl    = -0.00551469
    Cl(f) = 0.163435
    Cl(r) = -0.16895

Time = 23

smoothSolver:  Solving for Ux, Initial residual = 0.00443926, Final residual = 0.000381472, No Iterations 9
smoothSolver:  Solving for Uy, Initial residual = 0.103343, Final residual = 0.00822086, No Iterations 9
smoothSolver:  Solving for Uz, Initial residual = 0.101655, Final residual = 0.00840755, No Iterations 9
GAMG:  Solving for p, Initial residual = 0.0323916, Final residual = 0.000255396, No Iterations 4
time step continuity errors : sum local = 0.000621763, global = 4.44106e-06, cumulative = 0.000140524
smoothSolver:  Solving for omega, Initial residual = 0.00121446, Final residual = 5.55492e-05, No Iterations 3
smoothSolver:  Solving for k, Initial residual = 0.00592748, Final residual = 0.00058724, No Iterations 3
ExecutionTime = 6.96 s  ClockTime = 7 s

forceCoeffs forceCoeffs1 write:
    Cm    = 0.164334
    Cd    = 0.418252
    Cl    = -0.00385704
    Cl(f) = 0.162405
    Cl(r) = -0.166262

Time = 24

smoothSolver:  Solving for Ux, Initial residual = 0.00429899, Final residual = 0.000379626, No Iterations 9
smoothSolver:  Solving for Uy, Initial residual = 0.100728, Final residual = 0.00815571, No Iterations 9
smoothSolver:  Solving for Uz, Initial residual = 0.0969196, Final residual = 0.00820914, No Iterations 9
GAMG:  Solving for p, Initial residual = 0.0316494, Final residual = 0.000249377, No Iterations 4
time step continuity errors : sum local = 0.00058884, global = 3.08228e-06, cumulative = 0.000143606
smoothSolver:  Solving for omega, Initial residual = 0.000670189, Final residual = 4.90975e-05, No Iterations 3
smoothSolver:  Solving for k, Initial residual = 0.0058495, Final residual = 0.000281339, No Iterations 4
ExecutionTime = 7.16 s  ClockTime = 7 s

forceCoeffs forceCoeffs1 write:
    Cm    = 0.162985
    Cd    = 0.415496
    Cl    = 0.000834756
    Cl(f) = 0.163402
    Cl(r) = -0.162567

Time = 25

smoothSolver:  Solving for Ux, Initial residual = 0.00419263, Final residual = 0.000378881, No Iterations 9
smoothSolver:  Solving for Uy, Initial residual = 0.0970896, Final residual = 0.00802169, No Iterations 9
smoothSolver:  Solving for Uz, Initial residual = 0.0922144, Final residual = 0.00796142, No Iterations 9
GAMG:  Solving for p, Initial residual = 0.0308885, Final residual = 0.000240854, No Iterations 4
time step continuity errors : sum local = 0.000551132, global = 6.3003e-07, cumulative = 0.000144236
smoothSolver:  Solving for omega, Initial residual = 0.000574819, Final residual = 4.51612e-05, No Iterations 3
smoothSolver:  Solving for k, Initial residual = 0.00582968, Final residual = 0.00028998, No Iterations 4
ExecutionTime = 7.38 s  ClockTime = 8 s

forceCoeffs forceCoeffs1 write:
    Cm    = 0.163294
    Cd    = 0.41484
    Cl    = 0.00797347
    Cl(f) = 0.167281
    Cl(r) = -0.159307

Time = 26

smoothSolver:  Solving for Ux, Initial residual = 0.00407301, Final residual = 0.000375636, No Iterations 9
smoothSolver:  Solving for Uy, Initial residual = 0.0927748, Final residual = 0.00785275, No Iterations 9
smoothSolver:  Solving for Uz, Initial residual = 0.0876231, Final residual = 0.00770911, No Iterations 9
GAMG:  Solving for p, Initial residual = 0.0301078, Final residual = 0.00023053, No Iterations 4
time step continuity errors : sum local = 0.000510432, global = -2.83381e-06, cumulative = 0.000141403
smoothSolver:  Solving for omega, Initial residual = 0.000531147, Final residual = 4.25611e-05, No Iterations 3
smoothSolver:  Solving for k, Initial residual = 0.00575932, Final residual = 0.00029354, No Iterations 4
ExecutionTime = 7.6 s  ClockTime = 8 s

forceCoeffs forceCoeffs1 write:
    Cm    = 0.165276
    Cd    = 0.415811
    Cl    = 0.0164483
    Cl(f) = 0.173501
    Cl(r) = -0.157052

Time = 27

smoothSolver:  Solving for Ux, Initial residual = 0.00394378, Final residual = 0.000369784, No Iterations 9
smoothSolver:  Solving for Uy, Initial residual = 0.0878249, Final residual = 0.00763057, No Iterations 9
smoothSolver:  Solving for Uz, Initial residual = 0.0830042, Final residual = 0.00745799, No Iterations 9
GAMG:  Solving for p, Initial residual = 0.0294996, Final residual = 0.000223123, No Iterations 4
time step continuity errors : sum local = 0.000479628, global = -7.52399e-06, cumulative = 0.000133879
smoothSolver:  Solving for omega, Initial residual = 0.000502194, Final residual = 4.06349e-05, No Iterations 3
smoothSolver:  Solving for k, Initial residual = 0.00565216, Final residual = 0.000292318, No Iterations 4
ExecutionTime = 7.82 s  ClockTime = 8 s

forceCoeffs forceCoeffs1 write:
    Cm    = 0.167696
    Cd    = 0.417504
    Cl    = 0.024364
    Cl(f) = 0.179878
    Cl(r) = -0.155514

Time = 28

smoothSolver:  Solving for Ux, Initial residual = 0.00381439, Final residual = 0.000361443, No Iterations 9
smoothSolver:  Solving for Uy, Initial residual = 0.0835525, Final residual = 0.00738337, No Iterations 9
smoothSolver:  Solving for Uz, Initial residual = 0.0785612, Final residual = 0.00717709, No Iterations 9
GAMG:  Solving for p, Initial residual = 0.0288155, Final residual = 0.00022265, No Iterations 4
time step continuity errors : sum local = 0.000464978, global = -1.29966e-05, cumulative = 0.000120882
smoothSolver:  Solving for omega, Initial residual = 0.000477458, Final residual = 3.9109e-05, No Iterations 3
smoothSolver:  Solving for k, Initial residual = 0.00554713, Final residual = 0.000288736, No Iterations 4
ExecutionTime = 8.03 s  ClockTime = 8 s

forceCoeffs forceCoeffs1 write:
    Cm    = 0.169658
    Cd    = 0.418304
    Cl    = 0.0305643
    Cl(f) = 0.18494
    Cl(r) = -0.154376

Time = 29

smoothSolver:  Solving for Ux, Initial residual = 0.00368059, Final residual = 0.000350622, No Iterations 9
smoothSolver:  Solving for Uy, Initial residual = 0.0799777, Final residual = 0.00713985, No Iterations 9
smoothSolver:  Solving for Uz, Initial residual = 0.0745834, Final residual = 0.00689666, No Iterations 9
GAMG:  Solving for p, Initial residual = 0.0281199, Final residual = 0.000225035, No Iterations 4
time step continuity errors : sum local = 0.000457257, global = -1.95048e-05, cumulative = 0.000101377
smoothSolver:  Solving for omega, Initial residual = 0.000454253, Final residual = 3.75791e-05, No Iterations 3
smoothSolver:  Solving for k, Initial residual = 0.00541898, Final residual = 0.000284511, No Iterations 4
ExecutionTime = 8.23 s  ClockTime = 9 s

forceCoeffs forceCoeffs1 write:
    Cm    = 0.170652
    Cd    = 0.417067
    Cl    = 0.0352948
    Cl(f) = 0.188299
    Cl(r) = -0.153004

Time = 30

smoothSolver:  Solving for Ux, Initial residual = 0.00354327, Final residual = 0.00033945, No Iterations 9
smoothSolver:  Solving for Uy, Initial residual = 0.0770896, Final residual = 0.00698362, No Iterations 9
smoothSolver:  Solving for Uz, Initial residual = 0.0709495, Final residual = 0.00663048, No Iterations 9
GAMG:  Solving for p, Initial residual = 0.027488, Final residual = 0.000224277, No Iterations 4
time step continuity errors : sum local = 0.000444684, global = -2.39738e-05, cumulative = 7.74035e-05
smoothSolver:  Solving for omega, Initial residual = 0.00043256, Final residual = 3.6307e-05, No Iterations 3
smoothSolver:  Solving for k, Initial residual = 0.00532424, Final residual = 0.000280661, No Iterations 4
ExecutionTime = 8.43 s  ClockTime = 9 s

forceCoeffs forceCoeffs1 write:
    Cm    = 0.171013
    Cd    = 0.415424
    Cl    = 0.0396406
    Cl(f) = 0.190834
    Cl(r) = -0.151193

Time = 31

smoothSolver:  Solving for Ux, Initial residual = 0.00341318, Final residual = 0.0003285, No Iterations 9
smoothSolver:  Solving for Uy, Initial residual = 0.0753094, Final residual = 0.00695286, No Iterations 9
smoothSolver:  Solving for Uz, Initial residual = 0.0678518, Final residual = 0.006371, No Iterations 9
GAMG:  Solving for p, Initial residual = 0.0270688, Final residual = 0.000222152, No Iterations 4
time step continuity errors : sum local = 0.000430267, global = -2.53198e-05, cumulative = 5.20837e-05
smoothSolver:  Solving for omega, Initial residual = 0.000416724, Final residual = 3.50492e-05, No Iterations 3
smoothSolver:  Solving for k, Initial residual = 0.00525751, Final residual = 0.000278039, No Iterations 4
ExecutionTime = 8.65 s  ClockTime = 9 s

forceCoeffs forceCoeffs1 write:
    Cm    = 0.170603
    Cd    = 0.412579
    Cl    = 0.043786
    Cl(f) = 0.192496
    Cl(r) = -0.14871

Time = 32

smoothSolver:  Solving for Ux, Initial residual = 0.00330371, Final residual = 0.000317051, No Iterations 9
smoothSolver:  Solving for Uy, Initial residual = 0.0742581, Final residual = 0.00691163, No Iterations 9
smoothSolver:  Solving for Uz, Initial residual = 0.0652269, Final residual = 0.00609089, No Iterations 9
GAMG:  Solving for p, Initial residual = 0.0265978, Final residual = 0.000219356, No Iterations 4
time step continuity errors : sum local = 0.000414705, global = -2.37086e-05, cumulative = 2.83751e-05
smoothSolver:  Solving for omega, Initial residual = 0.000402378, Final residual = 3.39371e-05, No Iterations 3
smoothSolver:  Solving for k, Initial residual = 0.00518875, Final residual = 0.000274488, No Iterations 4
ExecutionTime = 8.87 s  ClockTime = 9 s

forceCoeffs forceCoeffs1 write:
    Cm    = 0.169931
    Cd    = 0.41068
    Cl    = 0.0478547
    Cl(f) = 0.193858
    Cl(r) = -0.146004

Time = 33

smoothSolver:  Solving for Ux, Initial residual = 0.00319971, Final residual = 0.000306214, No Iterations 9
smoothSolver:  Solving for Uy, Initial residual = 0.0732244, Final residual = 0.00680528, No Iterations 9
smoothSolver:  Solving for Uz, Initial residual = 0.0626027, Final residual = 0.00580788, No Iterations 9
GAMG:  Solving for p, Initial residual = 0.0261214, Final residual = 0.000217937, No Iterations 4
time step continuity errors : sum local = 0.000403344, global = -2.09882e-05, cumulative = 7.38688e-06
smoothSolver:  Solving for omega, Initial residual = 0.000388962, Final residual = 3.28989e-05, No Iterations 3
smoothSolver:  Solving for k, Initial residual = 0.00510845, Final residual = 0.000270132, No Iterations 4
ExecutionTime = 9.09 s  ClockTime = 9 s

forceCoeffs forceCoeffs1 write:
    Cm    = 0.169127
    Cd    = 0.408957
    Cl    = 0.0513037
    Cl(f) = 0.194779
    Cl(r) = -0.143475

Time = 34

smoothSolver:  Solving for Ux, Initial residual = 0.00309492, Final residual = 0.00029676, No Iterations 9
smoothSolver:  Solving for Uy, Initial residual = 0.0717104, Final residual = 0.00667058, No Iterations 9
smoothSolver:  Solving for Uz, Initial residual = 0.0596283, Final residual = 0.00551024, No Iterations 9
GAMG:  Solving for p, Initial residual = 0.0256036, Final residual = 0.000212269, No Iterations 4
time step continuity errors : sum local = 0.000384749, global = -1.75062e-05, cumulative = -1.01193e-05
smoothSolver:  Solving for omega, Initial residual = 0.00037557, Final residual = 3.19908e-05, No Iterations 3
smoothSolver:  Solving for k, Initial residual = 0.00501881, Final residual = 0.000265021, No Iterations 4
ExecutionTime = 9.3 s  ClockTime = 10 s

forceCoeffs forceCoeffs1 write:
    Cm    = 0.168083
    Cd    = 0.407694
    Cl    = 0.0539544
    Cl(f) = 0.19506
    Cl(r) = -0.141106

Time = 35

smoothSolver:  Solving for Ux, Initial residual = 0.00299155, Final residual = 0.000288868, No Iterations 9
smoothSolver:  Solving for Uy, Initial residual = 0.0697254, Final residual = 0.00651058, No Iterations 9
smoothSolver:  Solving for Uz, Initial residual = 0.0564412, Final residual = 0.00523988, No Iterations 9
GAMG:  Solving for p, Initial residual = 0.0251572, Final residual = 0.000202078, No Iterations 4
time step continuity errors : sum local = 0.000359612, global = -1.33212e-05, cumulative = -2.34405e-05
smoothSolver:  Solving for omega, Initial residual = 0.000363312, Final residual = 3.11704e-05, No Iterations 3
smoothSolver:  Solving for k, Initial residual = 0.00491484, Final residual = 0.000260786, No Iterations 4
ExecutionTime = 9.51 s  ClockTime = 10 s

forceCoeffs forceCoeffs1 write:
    Cm    = 0.166511
    Cd    = 0.405285
    Cl    = 0.0558605
    Cl(f) = 0.194442
    Cl(r) = -0.138581

Time = 36

smoothSolver:  Solving for Ux, Initial residual = 0.00288766, Final residual = 0.000281731, No Iterations 9
smoothSolver:  Solving for Uy, Initial residual = 0.0671589, Final residual = 0.00628819, No Iterations 9
smoothSolver:  Solving for Uz, Initial residual = 0.0532981, Final residual = 0.00499303, No Iterations 9
GAMG:  Solving for p, Initial residual = 0.024559, Final residual = 0.000188888, No Iterations 4
time step continuity errors : sum local = 0.000330475, global = -8.74776e-06, cumulative = -3.21883e-05
smoothSolver:  Solving for omega, Initial residual = 0.000351589, Final residual = 3.0368e-05, No Iterations 3
smoothSolver:  Solving for k, Initial residual = 0.00479526, Final residual = 0.000256522, No Iterations 4
ExecutionTime = 9.72 s  ClockTime = 10 s

forceCoeffs forceCoeffs1 write:
    Cm    = 0.164911
    Cd    = 0.403105
    Cl    = 0.0571459
    Cl(f) = 0.193484
    Cl(r) = -0.136338

Time = 37

smoothSolver:  Solving for Ux, Initial residual = 0.00278331, Final residual = 0.000274266, No Iterations 9
smoothSolver:  Solving for Uy, Initial residual = 0.0646128, Final residual = 0.00606933, No Iterations 9
smoothSolver:  Solving for Uz, Initial residual = 0.050331, Final residual = 0.00476501, No Iterations 9
GAMG:  Solving for p, Initial residual = 0.0238585, Final residual = 0.000179151, No Iterations 4
time step continuity errors : sum local = 0.000308767, global = -5.66111e-06, cumulative = -3.78494e-05
smoothSolver:  Solving for omega, Initial residual = 0.00034036, Final residual = 2.95702e-05, No Iterations 3
smoothSolver:  Solving for k, Initial residual = 0.00468134, Final residual = 0.000251803, No Iterations 4
ExecutionTime = 9.93 s  ClockTime = 10 s

forceCoeffs forceCoeffs1 write:
    Cm    = 0.162793
    Cd    = 0.400154
    Cl    = 0.0590977
    Cl(f) = 0.192342
    Cl(r) = -0.133244

Time = 38

smoothSolver:  Solving for Ux, Initial residual = 0.00267771, Final residual = 0.000266989, No Iterations 9
smoothSolver:  Solving for Uy, Initial residual = 0.0620746, Final residual = 0.00585841, No Iterations 9
smoothSolver:  Solving for Uz, Initial residual = 0.0475017, Final residual = 0.00454888, No Iterations 9
GAMG:  Solving for p, Initial residual = 0.0230083, Final residual = 0.000171411, No Iterations 4
time step continuity errors : sum local = 0.00029169, global = -4.68374e-06, cumulative = -4.25331e-05
smoothSolver:  Solving for omega, Initial residual = 0.000329521, Final residual = 2.87546e-05, No Iterations 3
bounding omega, min: -53.7149 max: 108530 average: 923.74
smoothSolver:  Solving for k, Initial residual = 0.00457032, Final residual = 0.000247562, No Iterations 4
ExecutionTime = 10.13 s  ClockTime = 10 s

forceCoeffs forceCoeffs1 write:
    Cm    = 0.160801
    Cd    = 0.397798
    Cl    = 0.0610663
    Cl(f) = 0.191334
    Cl(r) = -0.130268

Time = 39

smoothSolver:  Solving for Ux, Initial residual = 0.00258285, Final residual = 0.00020612, No Iterations 10
smoothSolver:  Solving for Uy, Initial residual = 0.0591645, Final residual = 0.0056313, No Iterations 9
smoothSolver:  Solving for Uz, Initial residual = 0.0449655, Final residual = 0.00435788, No Iterations 9
GAMG:  Solving for p, Initial residual = 0.0221037, Final residual = 0.000163838, No Iterations 4
time step continuity errors : sum local = 0.000275662, global = -5.39666e-06, cumulative = -4.79298e-05
smoothSolver:  Solving for omega, Initial residual = 0.000318895, Final residual = 2.78639e-05, No Iterations 3
bounding omega, min: -26.565 max: 108530 average: 922.043
smoothSolver:  Solving for k, Initial residual = 0.00446968, Final residual = 0.000243705, No Iterations 4
ExecutionTime = 10.34 s  ClockTime = 11 s

forceCoeffs forceCoeffs1 write:
    Cm    = 0.158913
    Cd    = 0.395564
    Cl    = 0.0625728
    Cl(f) = 0.190199
    Cl(r) = -0.127626

Time = 40

smoothSolver:  Solving for Ux, Initial residual = 0.00249119, Final residual = 0.000200985, No Iterations 10
smoothSolver:  Solving for Uy, Initial residual = 0.0562977, Final residual = 0.00542714, No Iterations 9
smoothSolver:  Solving for Uz, Initial residual = 0.0429535, Final residual = 0.00420736, No Iterations 9
GAMG:  Solving for p, Initial residual = 0.0212845, Final residual = 0.00015772, No Iterations 4
time step continuity errors : sum local = 0.000262731, global = -6.3406e-06, cumulative = -5.42704e-05
smoothSolver:  Solving for omega, Initial residual = 0.000307946, Final residual = 2.69788e-05, No Iterations 3
bounding omega, min: -59.1159 max: 108530 average: 920.873
smoothSolver:  Solving for k, Initial residual = 0.00437439, Final residual = 0.000240113, No Iterations 4
ExecutionTime = 10.54 s  ClockTime = 11 s

forceCoeffs forceCoeffs1 write:
    Cm    = 0.157693
    Cd    = 0.394567
    Cl    = 0.0634733
    Cl(f) = 0.18943
    Cl(r) = -0.125957

Time = 41

smoothSolver:  Solving for Ux, Initial residual = 0.0024176, Final residual = 0.000196803, No Iterations 10
smoothSolver:  Solving for Uy, Initial residual = 0.0536504, Final residual = 0.00523578, No Iterations 9
smoothSolver:  Solving for Uz, Initial residual = 0.0412751, Final residual = 0.0040874, No Iterations 9
GAMG:  Solving for p, Initial residual = 0.0205886, Final residual = 0.000156256, No Iterations 4
time step continuity errors : sum local = 0.000257744, global = -7.35752e-06, cumulative = -6.16279e-05
smoothSolver:  Solving for omega, Initial residual = 0.00029861, Final residual = 2.61741e-05, No Iterations 3
bounding omega, min: -27.545 max: 108530 average: 920.094
smoothSolver:  Solving for k, Initial residual = 0.00428103, Final residual = 0.000236187, No Iterations 4
ExecutionTime = 10.75 s  ClockTime = 11 s

forceCoeffs forceCoeffs1 write:
    Cm    = 0.156556
    Cd    = 0.393489
    Cl    = 0.0643442
    Cl(f) = 0.188728
    Cl(r) = -0.124384

Time = 42

smoothSolver:  Solving for Ux, Initial residual = 0.00236083, Final residual = 0.000193942, No Iterations 10
smoothSolver:  Solving for Uy, Initial residual = 0.0515653, Final residual = 0.00507394, No Iterations 9
smoothSolver:  Solving for Uz, Initial residual = 0.039861, Final residual = 0.00397308, No Iterations 9
GAMG:  Solving for p, Initial residual = 0.0200571, Final residual = 0.000156766, No Iterations 4
time step continuity errors : sum local = 0.00025596, global = -8.0405e-06, cumulative = -6.96684e-05
smoothSolver:  Solving for omega, Initial residual = 0.00029007, Final residual = 2.54607e-05, No Iterations 3
bounding omega, min: -34.7774 max: 108530 average: 920.146
smoothSolver:  Solving for k, Initial residual = 0.00418888, Final residual = 0.000232097, No Iterations 4
ExecutionTime = 10.97 s  ClockTime = 11 s

forceCoeffs forceCoeffs1 write:
    Cm    = 0.155896
    Cd    = 0.393478
    Cl    = 0.0649629
    Cl(f) = 0.188377
    Cl(r) = -0.123414

Time = 43

smoothSolver:  Solving for Ux, Initial residual = 0.00231782, Final residual = 0.000191898, No Iterations 10
smoothSolver:  Solving for Uy, Initial residual = 0.050153, Final residual = 0.00494292, No Iterations 9
smoothSolver:  Solving for Uz, Initial residual = 0.0388079, Final residual = 0.00307141, No Iterations 10
GAMG:  Solving for p, Initial residual = 0.0197889, Final residual = 0.000160757, No Iterations 4
time step continuity errors : sum local = 0.000259696, global = -8.33555e-06, cumulative = -7.8004e-05
smoothSolver:  Solving for omega, Initial residual = 0.000282057, Final residual = 2.47522e-05, No Iterations 3
smoothSolver:  Solving for k, Initial residual = 0.00409414, Final residual = 0.000226583, No Iterations 4
ExecutionTime = 11.17 s  ClockTime = 11 s

forceCoeffs forceCoeffs1 write:
    Cm    = 0.155299
    Cd    = 0.393306
    Cl    = 0.0660442
    Cl(f) = 0.188321
    Cl(r) = -0.122277

Time = 44

smoothSolver:  Solving for Ux, Initial residual = 0.0022834, Final residual = 0.000189899, No Iterations 10
smoothSolver:  Solving for Uy, Initial residual = 0.0492524, Final residual = 0.00484613, No Iterations 9
smoothSolver:  Solving for Uz, Initial residual = 0.037904, Final residual = 0.00377953, No Iterations 9
GAMG:  Solving for p, Initial residual = 0.0195507, Final residual = 0.00015985, No Iterations 4
time step continuity errors : sum local = 0.000255253, global = -7.99938e-06, cumulative = -8.60034e-05
smoothSolver:  Solving for omega, Initial residual = 0.000275027, Final residual = 2.41591e-05, No Iterations 3
smoothSolver:  Solving for k, Initial residual = 0.00399923, Final residual = 0.000220619, No Iterations 4
ExecutionTime = 11.37 s  ClockTime = 12 s

forceCoeffs forceCoeffs1 write:
    Cm    = 0.155075
    Cd    = 0.393847
    Cl    = 0.0668101
    Cl(f) = 0.18848
    Cl(r) = -0.12167

Time = 45

smoothSolver:  Solving for Ux, Initial residual = 0.00224927, Final residual = 0.000187506, No Iterations 10
smoothSolver:  Solving for Uy, Initial residual = 0.048579, Final residual = 0.00474818, No Iterations 9
smoothSolver:  Solving for Uz, Initial residual = 0.0374589, Final residual = 0.00372011, No Iterations 9
GAMG:  Solving for p, Initial residual = 0.0193575, Final residual = 0.000158619, No Iterations 4
time step continuity errors : sum local = 0.000250466, global = -7.1356e-06, cumulative = -9.3139e-05
smoothSolver:  Solving for omega, Initial residual = 0.000268351, Final residual = 2.36322e-05, No Iterations 3
smoothSolver:  Solving for k, Initial residual = 0.00391219, Final residual = 0.000215047, No Iterations 4
ExecutionTime = 11.58 s  ClockTime = 12 s

forceCoeffs forceCoeffs1 write:
    Cm    = 0.154847
    Cd    = 0.393985
    Cl    = 0.0673041
    Cl(f) = 0.188499
    Cl(r) = -0.121195

Time = 46

smoothSolver:  Solving for Ux, Initial residual = 0.00220839, Final residual = 0.000184227, No Iterations 10
smoothSolver:  Solving for Uy, Initial residual = 0.0478506, Final residual = 0.00464336, No Iterations 9
smoothSolver:  Solving for Uz, Initial residual = 0.0370704, Final residual = 0.00365205, No Iterations 9
GAMG:  Solving for p, Initial residual = 0.0190998, Final residual = 0.000153983, No Iterations 4
time step continuity errors : sum local = 0.000240908, global = -6.24711e-06, cumulative = -9.93861e-05
smoothSolver:  Solving for omega, Initial residual = 0.000261726, Final residual = 2.31333e-05, No Iterations 3
smoothSolver:  Solving for k, Initial residual = 0.00383555, Final residual = 0.000209765, No Iterations 4
ExecutionTime = 11.77 s  ClockTime = 12 s

forceCoeffs forceCoeffs1 write:
    Cm    = 0.154634
    Cd    = 0.394073
    Cl    = 0.0674722
    Cl(f) = 0.18837
    Cl(r) = -0.120898

Time = 47

smoothSolver:  Solving for Ux, Initial residual = 0.00216402, Final residual = 0.000180434, No Iterations 10
smoothSolver:  Solving for Uy, Initial residual = 0.046963, Final residual = 0.00452528, No Iterations 9
smoothSolver:  Solving for Uz, Initial residual = 0.0366733, Final residual = 0.00357774, No Iterations 9
GAMG:  Solving for p, Initial residual = 0.0187945, Final residual = 0.000150382, No Iterations 4
time step continuity errors : sum local = 0.000233611, global = -5.54468e-06, cumulative = -0.000104931
smoothSolver:  Solving for omega, Initial residual = 0.000255636, Final residual = 2.25895e-05, No Iterations 3
smoothSolver:  Solving for k, Initial residual = 0.0037629, Final residual = 0.000204695, No Iterations 4
ExecutionTime = 11.99 s  ClockTime = 12 s

forceCoeffs forceCoeffs1 write:
    Cm    = 0.154496
    Cd    = 0.394015
    Cl    = 0.0675601
    Cl(f) = 0.188276
    Cl(r) = -0.120716

Time = 48

smoothSolver:  Solving for Ux, Initial residual = 0.00211821, Final residual = 0.0001763, No Iterations 10
smoothSolver:  Solving for Uy, Initial residual = 0.0457721, Final residual = 0.00440576, No Iterations 9
smoothSolver:  Solving for Uz, Initial residual = 0.0362238, Final residual = 0.00351454, No Iterations 9
GAMG:  Solving for p, Initial residual = 0.0184323, Final residual = 0.000147411, No Iterations 4
time step continuity errors : sum local = 0.000227881, global = -5.06431e-06, cumulative = -0.000109995
smoothSolver:  Solving for omega, Initial residual = 0.000249862, Final residual = 2.20469e-05, No Iterations 3
smoothSolver:  Solving for k, Initial residual = 0.00369206, Final residual = 0.000200276, No Iterations 4
ExecutionTime = 12.19 s  ClockTime = 12 s

forceCoeffs forceCoeffs1 write:
    Cm    = 0.154591
    Cd    = 0.394394
    Cl    = 0.0678045
    Cl(f) = 0.188493
    Cl(r) = -0.120688

Time = 49

smoothSolver:  Solving for Ux, Initial residual = 0.00207429, Final residual = 0.000172324, No Iterations 10
smoothSolver:  Solving for Uy, Initial residual = 0.0447183, Final residual = 0.00428968, No Iterations 9
smoothSolver:  Solving for Uz, Initial residual = 0.0356696, Final residual = 0.00345711, No Iterations 9
GAMG:  Solving for p, Initial residual = 0.0180249, Final residual = 0.000144378, No Iterations 4
time step continuity errors : sum local = 0.000222327, global = -4.66099e-06, cumulative = -0.000114656
smoothSolver:  Solving for omega, Initial residual = 0.000244244, Final residual = 2.14764e-05, No Iterations 3
smoothSolver:  Solving for k, Initial residual = 0.00361559, Final residual = 0.000195814, No Iterations 4
ExecutionTime = 12.4 s  ClockTime = 13 s

forceCoeffs forceCoeffs1 write:
    Cm    = 0.155021
    Cd    = 0.395365
    Cl    = 0.0683217
    Cl(f) = 0.189182
    Cl(r) = -0.12086

Time = 50

smoothSolver:  Solving for Ux, Initial residual = 0.00203014, Final residual = 0.00016853, No Iterations 10
smoothSolver:  Solving for Uy, Initial residual = 0.0437386, Final residual = 0.00417731, No Iterations 9
smoothSolver:  Solving for Uz, Initial residual = 0.0351905, Final residual = 0.00340275, No Iterations 9
GAMG:  Solving for p, Initial residual = 0.0176938, Final residual = 0.00014302, No Iterations 4
time step continuity errors : sum local = 0.000219542, global = -4.19507e-06, cumulative = -0.000118851
smoothSolver:  Solving for omega, Initial residual = 0.00023738, Final residual = 2.08857e-05, No Iterations 3
smoothSolver:  Solving for k, Initial residual = 0.00353172, Final residual = 0.000191321, No Iterations 4
ExecutionTime = 12.6 s  ClockTime = 13 s

forceCoeffs forceCoeffs1 write:
    Cm    = 0.155535
    Cd    = 0.396771
    Cl    = 0.069263
    Cl(f) = 0.190167
    Cl(r) = -0.120904

Time = 51

smoothSolver:  Solving for Ux, Initial residual = 0.00198919, Final residual = 0.000164704, No Iterations 10
smoothSolver:  Solving for Uy, Initial residual = 0.042986, Final residual = 0.00407912, No Iterations 9
smoothSolver:  Solving for Uz, Initial residual = 0.0348508, Final residual = 0.00335284, No Iterations 9
GAMG:  Solving for p, Initial residual = 0.0173728, Final residual = 0.00014157, No Iterations 4
time step continuity errors : sum local = 0.000216613, global = -3.61145e-06, cumulative = -0.000122463
smoothSolver:  Solving for omega, Initial residual = 0.000231626, Final residual = 2.04242e-05, No Iterations 3
smoothSolver:  Solving for k, Initial residual = 0.00344492, Final residual = 0.000186798, No Iterations 4
ExecutionTime = 12.8 s  ClockTime = 13 s

forceCoeffs forceCoeffs1 write:
    Cm    = 0.15589
    Cd    = 0.398002
    Cl    = 0.0704187
    Cl(f) = 0.191099
    Cl(r) = -0.12068

Time = 52

smoothSolver:  Solving for Ux, Initial residual = 0.00194533, Final residual = 0.000160921, No Iterations 10
smoothSolver:  Solving for Uy, Initial residual = 0.0423762, Final residual = 0.00400184, No Iterations 9
smoothSolver:  Solving for Uz, Initial residual = 0.0345507, Final residual = 0.00330701, No Iterations 9
GAMG:  Solving for p, Initial residual = 0.0170473, Final residual = 0.00013956, No Iterations 4
time step continuity errors : sum local = 0.000212881, global = -2.89846e-06, cumulative = -0.000125361
smoothSolver:  Solving for omega, Initial residual = 0.000226445, Final residual = 1.99715e-05, No Iterations 3
smoothSolver:  Solving for k, Initial residual = 0.00335702, Final residual = 0.000182021, No Iterations 4
ExecutionTime = 12.99 s  ClockTime = 13 s

forceCoeffs forceCoeffs1 write:
    Cm    = 0.155979
    Cd    = 0.398802
    Cl    = 0.0717854
    Cl(f) = 0.191872
    Cl(r) = -0.120086

Time = 53

smoothSolver:  Solving for Ux, Initial residual = 0.00189588, Final residual = 0.00015717, No Iterations 10
smoothSolver:  Solving for Uy, Initial residual = 0.0417808, Final residual = 0.00394337, No Iterations 9
smoothSolver:  Solving for Uz, Initial residual = 0.034098, Final residual = 0.00325633, No Iterations 9
GAMG:  Solving for p, Initial residual = 0.0167198, Final residual = 0.000135745, No Iterations 4
time step continuity errors : sum local = 0.000206433, global = -2.27329e-06, cumulative = -0.000127634
smoothSolver:  Solving for omega, Initial residual = 0.000221164, Final residual = 1.95299e-05, No Iterations 3
smoothSolver:  Solving for k, Initial residual = 0.00326729, Final residual = 0.000177163, No Iterations 4
ExecutionTime = 13.19 s  ClockTime = 13 s

forceCoeffs forceCoeffs1 write:
    Cm    = 0.155725
    Cd    = 0.398916
    Cl    = 0.0733443
    Cl(f) = 0.192397
    Cl(r) = -0.119053

Time = 54

smoothSolver:  Solving for Ux, Initial residual = 0.00184334, Final residual = 0.000153572, No Iterations 10
smoothSolver:  Solving for Uy, Initial residual = 0.040896, Final residual = 0.00389681, No Iterations 9
smoothSolver:  Solving for Uz, Initial residual = 0.0334933, Final residual = 0.00319452, No Iterations 9
GAMG:  Solving for p, Initial residual = 0.0163133, Final residual = 0.000131807, No Iterations 4
time step continuity errors : sum local = 0.00019993, global = -1.53109e-06, cumulative = -0.000129165
smoothSolver:  Solving for omega, Initial residual = 0.000215975, Final residual = 1.90953e-05, No Iterations 3
smoothSolver:  Solving for k, Initial residual = 0.00317842, Final residual = 0.000172468, No Iterations 4
ExecutionTime = 13.39 s  ClockTime = 14 s

forceCoeffs forceCoeffs1 write:
    Cm    = 0.155103
    Cd    = 0.398478
    Cl    = 0.0751968
    Cl(f) = 0.192701
    Cl(r) = -0.117504

Time = 55

smoothSolver:  Solving for Ux, Initial residual = 0.00179109, Final residual = 0.000150122, No Iterations 10
smoothSolver:  Solving for Uy, Initial residual = 0.039882, Final residual = 0.00383652, No Iterations 9
smoothSolver:  Solving for Uz, Initial residual = 0.0327715, Final residual = 0.00312269, No Iterations 9
GAMG:  Solving for p, Initial residual = 0.0158997, Final residual = 0.000127085, No Iterations 4
time step continuity errors : sum local = 0.000192404, global = -9.04133e-07, cumulative = -0.00013007
smoothSolver:  Solving for omega, Initial residual = 0.000211691, Final residual = 1.86484e-05, No Iterations 3
smoothSolver:  Solving for k, Initial residual = 0.00309327, Final residual = 0.000167837, No Iterations 4
ExecutionTime = 13.6 s  ClockTime = 14 s

forceCoeffs forceCoeffs1 write:
    Cm    = 0.154204
    Cd    = 0.397645
    Cl    = 0.0771709
    Cl(f) = 0.192789
    Cl(r) = -0.115619

Time = 56

smoothSolver:  Solving for Ux, Initial residual = 0.00174627, Final residual = 0.000146617, No Iterations 10
smoothSolver:  Solving for Uy, Initial residual = 0.0388551, Final residual = 0.00376248, No Iterations 9
smoothSolver:  Solving for Uz, Initial residual = 0.0320454, Final residual = 0.0030466, No Iterations 9
GAMG:  Solving for p, Initial residual = 0.0154708, Final residual = 0.000120368, No Iterations 4
time step continuity errors : sum local = 0.00018199, global = 2.32907e-07, cumulative = -0.000129837
smoothSolver:  Solving for omega, Initial residual = 0.00020738, Final residual = 1.82382e-05, No Iterations 3
smoothSolver:  Solving for k, Initial residual = 0.00300798, Final residual = 0.000162997, No Iterations 4
ExecutionTime = 13.79 s  ClockTime = 14 s

forceCoeffs forceCoeffs1 write:
    Cm    = 0.153173
    Cd    = 0.396776
    Cl    = 0.0790009
    Cl(f) = 0.192673
    Cl(r) = -0.113672

Time = 57

smoothSolver:  Solving for Ux, Initial residual = 0.00170819, Final residual = 0.000143257, No Iterations 10
smoothSolver:  Solving for Uy, Initial residual = 0.0377705, Final residual = 0.0036595, No Iterations 9
smoothSolver:  Solving for Uz, Initial residual = 0.0313418, Final residual = 0.00297533, No Iterations 9
GAMG:  Solving for p, Initial residual = 0.0150263, Final residual = 0.000114061, No Iterations 4
time step continuity errors : sum local = 0.000172285, global = 1.09402e-06, cumulative = -0.000128743
smoothSolver:  Solving for omega, Initial residual = 0.000203455, Final residual = 1.78622e-05, No Iterations 3
smoothSolver:  Solving for k, Initial residual = 0.00291807, Final residual = 0.000158019, No Iterations 4
ExecutionTime = 13.98 s  ClockTime = 14 s

forceCoeffs forceCoeffs1 write:
    Cm    = 0.152141
    Cd    = 0.395945
    Cl    = 0.0804554
    Cl(f) = 0.192369
    Cl(r) = -0.111914

Time = 58

smoothSolver:  Solving for Ux, Initial residual = 0.00167105, Final residual = 0.000139757, No Iterations 10
smoothSolver:  Solving for Uy, Initial residual = 0.0367343, Final residual = 0.00352997, No Iterations 9
smoothSolver:  Solving for Uz, Initial residual = 0.0306778, Final residual = 0.0029161, No Iterations 9
GAMG:  Solving for p, Initial residual = 0.0145892, Final residual = 0.000109866, No Iterations 4
time step continuity errors : sum local = 0.000165867, global = 1.41756e-06, cumulative = -0.000127325
smoothSolver:  Solving for omega, Initial residual = 0.000199331, Final residual = 1.74751e-05, No Iterations 3
smoothSolver:  Solving for k, Initial residual = 0.00282265, Final residual = 0.000153422, No Iterations 4
ExecutionTime = 14.18 s  ClockTime = 14 s

forceCoeffs forceCoeffs1 write:
    Cm    = 0.151239
    Cd    = 0.39542
    Cl    = 0.0813876
    Cl(f) = 0.191933
    Cl(r) = -0.110545

Time = 59

smoothSolver:  Solving for Ux, Initial residual = 0.00163495, Final residual = 0.000135817, No Iterations 10
smoothSolver:  Solving for Uy, Initial residual = 0.0356167, Final residual = 0.00337003, No Iterations 9
smoothSolver:  Solving for Uz, Initial residual = 0.0301714, Final residual = 0.00285759, No Iterations 9
GAMG:  Solving for p, Initial residual = 0.0142044, Final residual = 0.000108012, No Iterations 4
time step continuity errors : sum local = 0.000163089, global = 1.74236e-06, cumulative = -0.000125583
smoothSolver:  Solving for omega, Initial residual = 0.000195469, Final residual = 1.71201e-05, No Iterations 3
smoothSolver:  Solving for k, Initial residual = 0.002732, Final residual = 0.000149091, No Iterations 4
ExecutionTime = 14.39 s  ClockTime = 15 s

forceCoeffs forceCoeffs1 write:
    Cm    = 0.150608
    Cd    = 0.395301
    Cl    = 0.0818198
    Cl(f) = 0.191518
    Cl(r) = -0.109698

Time = 60

smoothSolver:  Solving for Ux, Initial residual = 0.00159527, Final residual = 0.000131886, No Iterations 10
smoothSolver:  Solving for Uy, Initial residual = 0.0344444, Final residual = 0.0032101, No Iterations 9
smoothSolver:  Solving for Uz, Initial residual = 0.0296806, Final residual = 0.00279582, No Iterations 9
GAMG:  Solving for p, Initial residual = 0.0139297, Final residual = 0.000107046, No Iterations 4
time step continuity errors : sum local = 0.000161757, global = 2.13588e-06, cumulative = -0.000123447
smoothSolver:  Solving for omega, Initial residual = 0.000192002, Final residual = 1.67167e-05, No Iterations 3
smoothSolver:  Solving for k, Initial residual = 0.00264284, Final residual = 0.000143748, No Iterations 4
ExecutionTime = 14.61 s  ClockTime = 15 s

forceCoeffs forceCoeffs1 write:
    Cm    = 0.15011
    Cd    = 0.395352
    Cl    = 0.0818231
    Cl(f) = 0.191022
    Cl(r) = -0.109199

Time = 61

smoothSolver:  Solving for Ux, Initial residual = 0.00155089, Final residual = 0.000128115, No Iterations 10
smoothSolver:  Solving for Uy, Initial residual = 0.0333227, Final residual = 0.00306854, No Iterations 9
smoothSolver:  Solving for Uz, Initial residual = 0.0290803, Final residual = 0.00273799, No Iterations 9
GAMG:  Solving for p, Initial residual = 0.013762, Final residual = 0.000105431, No Iterations 4
time step continuity errors : sum local = 0.000159523, global = 2.69257e-06, cumulative = -0.000120754
smoothSolver:  Solving for omega, Initial residual = 0.000188142, Final residual = 1.62756e-05, No Iterations 3
smoothSolver:  Solving for k, Initial residual = 0.0025499, Final residual = 0.000137872, No Iterations 4
ExecutionTime = 14.82 s  ClockTime = 15 s

forceCoeffs forceCoeffs1 write:
    Cm    = 0.149618
    Cd    = 0.395346
    Cl    = 0.0813935
    Cl(f) = 0.190315
    Cl(r) = -0.108921

Time = 62

smoothSolver:  Solving for Ux, Initial residual = 0.00150922, Final residual = 0.000124817, No Iterations 10
smoothSolver:  Solving for Uy, Initial residual = 0.0323786, Final residual = 0.00296193, No Iterations 9
smoothSolver:  Solving for Uz, Initial residual = 0.0284097, Final residual = 0.00267513, No Iterations 9
GAMG:  Solving for p, Initial residual = 0.013616, Final residual = 0.000102925, No Iterations 4
time step continuity errors : sum local = 0.000156014, global = 3.19752e-06, cumulative = -0.000117557
smoothSolver:  Solving for omega, Initial residual = 0.000183802, Final residual = 1.58567e-05, No Iterations 3
smoothSolver:  Solving for k, Initial residual = 0.00246265, Final residual = 0.000132316, No Iterations 4
ExecutionTime = 15.02 s  ClockTime = 15 s

forceCoeffs forceCoeffs1 write:
    Cm    = 0.149085
    Cd    = 0.395161
    Cl    = 0.0806571
    Cl(f) = 0.189413
    Cl(r) = -0.108756

Time = 63

smoothSolver:  Solving for Ux, Initial residual = 0.00146858, Final residual = 0.000121573, No Iterations 10
smoothSolver:  Solving for Uy, Initial residual = 0.0314666, Final residual = 0.00287818, No Iterations 9
smoothSolver:  Solving for Uz, Initial residual = 0.0276525, Final residual = 0.0025957, No Iterations 9
GAMG:  Solving for p, Initial residual = 0.0134383, Final residual = 0.000100936, No Iterations 4
time step continuity errors : sum local = 0.000153267, global = 3.6984e-06, cumulative = -0.000113858
smoothSolver:  Solving for omega, Initial residual = 0.000179985, Final residual = 1.55312e-05, No Iterations 3
smoothSolver:  Solving for k, Initial residual = 0.00238423, Final residual = 0.000127525, No Iterations 4
ExecutionTime = 15.21 s  ClockTime = 15 s

forceCoeffs forceCoeffs1 write:
    Cm    = 0.148704
    Cd    = 0.395152
    Cl    = 0.0796242
    Cl(f) = 0.188516
    Cl(r) = -0.108892

Time = 64

smoothSolver:  Solving for Ux, Initial residual = 0.00143008, Final residual = 0.00011841, No Iterations 10
smoothSolver:  Solving for Uy, Initial residual = 0.0305696, Final residual = 0.00279657, No Iterations 9
smoothSolver:  Solving for Uz, Initial residual = 0.0269815, Final residual = 0.00251798, No Iterations 9
GAMG:  Solving for p, Initial residual = 0.0132217, Final residual = 0.000101083, No Iterations 4
time step continuity errors : sum local = 0.000153775, global = 4.16834e-06, cumulative = -0.00010969
smoothSolver:  Solving for omega, Initial residual = 0.000176619, Final residual = 1.52726e-05, No Iterations 3
smoothSolver:  Solving for k, Initial residual = 0.00231428, Final residual = 0.000123682, No Iterations 4
ExecutionTime = 15.4 s  ClockTime = 16 s

forceCoeffs forceCoeffs1 write:
    Cm    = 0.14856
    Cd    = 0.395545
    Cl    = 0.0785636
    Cl(f) = 0.187841
    Cl(r) = -0.109278

Time = 65

smoothSolver:  Solving for Ux, Initial residual = 0.00139361, Final residual = 0.00011546, No Iterations 10
smoothSolver:  Solving for Uy, Initial residual = 0.0296312, Final residual = 0.00270882, No Iterations 9
smoothSolver:  Solving for Uz, Initial residual = 0.0264974, Final residual = 0.00245236, No Iterations 9
GAMG:  Solving for p, Initial residual = 0.0129234, Final residual = 0.000101162, No Iterations 4
time step continuity errors : sum local = 0.000154147, global = 4.31583e-06, cumulative = -0.000105374
smoothSolver:  Solving for omega, Initial residual = 0.000174218, Final residual = 1.50331e-05, No Iterations 3
smoothSolver:  Solving for k, Initial residual = 0.0022581, Final residual = 0.000120463, No Iterations 4
ExecutionTime = 15.62 s  ClockTime = 16 s

forceCoeffs forceCoeffs1 write:
    Cm    = 0.148695
    Cd    = 0.396525
    Cl    = 0.0775353
    Cl(f) = 0.187462
    Cl(r) = -0.109927

Time = 66

smoothSolver:  Solving for Ux, Initial residual = 0.00136188, Final residual = 0.000112738, No Iterations 10
smoothSolver:  Solving for Uy, Initial residual = 0.02859, Final residual = 0.00261317, No Iterations 9
smoothSolver:  Solving for Uz, Initial residual = 0.0262148, Final residual = 0.00241431, No Iterations 9
GAMG:  Solving for p, Initial residual = 0.0125971, Final residual = 9.88287e-05, No Iterations 4
time step continuity errors : sum local = 0.000150773, global = 4.0956e-06, cumulative = -0.000101279
smoothSolver:  Solving for omega, Initial residual = 0.000171565, Final residual = 1.48025e-05, No Iterations 3
smoothSolver:  Solving for k, Initial residual = 0.00220979, Final residual = 0.000117601, No Iterations 4
ExecutionTime = 15.83 s  ClockTime = 16 s

forceCoeffs forceCoeffs1 write:
    Cm    = 0.148938
    Cd    = 0.397816
    Cl    = 0.0765963
    Cl(f) = 0.187236
    Cl(r) = -0.11064

Time = 67

smoothSolver:  Solving for Ux, Initial residual = 0.00133085, Final residual = 0.000110347, No Iterations 10
smoothSolver:  Solving for Uy, Initial residual = 0.0275584, Final residual = 0.00251741, No Iterations 9
smoothSolver:  Solving for Uz, Initial residual = 0.0259944, Final residual = 0.00240436, No Iterations 9
GAMG:  Solving for p, Initial residual = 0.0122992, Final residual = 9.49171e-05, No Iterations 4
time step continuity errors : sum local = 0.000144866, global = 3.71131e-06, cumulative = -9.75672e-05
smoothSolver:  Solving for omega, Initial residual = 0.000169253, Final residual = 1.4539e-05, No Iterations 3
smoothSolver:  Solving for k, Initial residual = 0.00216561, Final residual = 0.000115187, No Iterations 4
ExecutionTime = 16.03 s  ClockTime = 16 s

forceCoeffs forceCoeffs1 write:
    Cm    = 0.149202
    Cd    = 0.399159
    Cl    = 0.0756825
    Cl(f) = 0.187043
    Cl(r) = -0.11136

Time = 68

smoothSolver:  Solving for Ux, Initial residual = 0.00130041, Final residual = 0.000108285, No Iterations 10
smoothSolver:  Solving for Uy, Initial residual = 0.0265541, Final residual = 0.00243172, No Iterations 9
smoothSolver:  Solving for Uz, Initial residual = 0.0259045, Final residual = 0.00240398, No Iterations 9
GAMG:  Solving for p, Initial residual = 0.0120376, Final residual = 9.15771e-05, No Iterations 4
time step continuity errors : sum local = 0.000139745, global = 3.39971e-06, cumulative = -9.41675e-05
smoothSolver:  Solving for omega, Initial residual = 0.000166303, Final residual = 1.42941e-05, No Iterations 3
smoothSolver:  Solving for k, Initial residual = 0.00212833, Final residual = 0.000113682, No Iterations 4
ExecutionTime = 16.22 s  ClockTime = 17 s

forceCoeffs forceCoeffs1 write:
    Cm    = 0.149489
    Cd    = 0.400304
    Cl    = 0.0747473
    Cl(f) = 0.186863
    Cl(r) = -0.112116

Time = 69

smoothSolver:  Solving for Ux, Initial residual = 0.00127456, Final residual = 0.000105835, No Iterations 10
smoothSolver:  Solving for Uy, Initial residual = 0.0257384, Final residual = 0.00235211, No Iterations 9
smoothSolver:  Solving for Uz, Initial residual = 0.0259116, Final residual = 0.00240036, No Iterations 9
GAMG:  Solving for p, Initial residual = 0.0118019, Final residual = 9.06319e-05, No Iterations 4
time step continuity errors : sum local = 0.000138227, global = 3.27011e-06, cumulative = -9.08974e-05
smoothSolver:  Solving for omega, Initial residual = 0.00016387, Final residual = 1.40644e-05, No Iterations 3
smoothSolver:  Solving for k, Initial residual = 0.00209781, Final residual = 0.000112443, No Iterations 4
ExecutionTime = 16.42 s  ClockTime = 17 s

forceCoeffs forceCoeffs1 write:
    Cm    = 0.149957
    Cd    = 0.401265
    Cl    = 0.0739297
    Cl(f) = 0.186922
    Cl(r) = -0.112992

Time = 70

smoothSolver:  Solving for Ux, Initial residual = 0.00125152, Final residual = 0.000102743, No Iterations 10
smoothSolver:  Solving for Uy, Initial residual = 0.0251641, Final residual = 0.00228502, No Iterations 9
smoothSolver:  Solving for Uz, Initial residual = 0.0259015, Final residual = 0.00238816, No Iterations 9
GAMG:  Solving for p, Initial residual = 0.0115816, Final residual = 9.21784e-05, No Iterations 4
time step continuity errors : sum local = 0.000140568, global = 3.47125e-06, cumulative = -8.74262e-05
smoothSolver:  Solving for omega, Initial residual = 0.000162078, Final residual = 1.38401e-05, No Iterations 3
smoothSolver:  Solving for k, Initial residual = 0.0020758, Final residual = 0.000111678, No Iterations 4
ExecutionTime = 16.62 s  ClockTime = 17 s

forceCoeffs forceCoeffs1 write:
    Cm    = 0.150554
    Cd    = 0.402005
    Cl    = 0.0732413
    Cl(f) = 0.187175
    Cl(r) = -0.113934

Time = 71

smoothSolver:  Solving for Ux, Initial residual = 0.00122852, Final residual = 9.96315e-05, No Iterations 10
smoothSolver:  Solving for Uy, Initial residual = 0.02472, Final residual = 0.00223273, No Iterations 9
smoothSolver:  Solving for Uz, Initial residual = 0.0257893, Final residual = 0.00236053, No Iterations 9
GAMG:  Solving for p, Initial residual = 0.0113516, Final residual = 9.26107e-05, No Iterations 4
time step continuity errors : sum local = 0.000141295, global = 3.77456e-06, cumulative = -8.36516e-05
smoothSolver:  Solving for omega, Initial residual = 0.000160777, Final residual = 1.36328e-05, No Iterations 3
smoothSolver:  Solving for k, Initial residual = 0.00206259, Final residual = 0.000110821, No Iterations 4
ExecutionTime = 16.82 s  ClockTime = 17 s

forceCoeffs forceCoeffs1 write:
    Cm    = 0.151286
    Cd    = 0.402567
    Cl    = 0.0725976
    Cl(f) = 0.187585
    Cl(r) = -0.114987

Time = 72

smoothSolver:  Solving for Ux, Initial residual = 0.00120358, Final residual = 9.64378e-05, No Iterations 10
smoothSolver:  Solving for Uy, Initial residual = 0.0243737, Final residual = 0.00218978, No Iterations 9
smoothSolver:  Solving for Uz, Initial residual = 0.0255241, Final residual = 0.0023316, No Iterations 9
GAMG:  Solving for p, Initial residual = 0.0111134, Final residual = 9.09297e-05, No Iterations 4
time step continuity errors : sum local = 0.000138845, global = 4.01959e-06, cumulative = -7.9632e-05
smoothSolver:  Solving for omega, Initial residual = 0.000159283, Final residual = 1.34609e-05, No Iterations 3
smoothSolver:  Solving for k, Initial residual = 0.00204829, Final residual = 0.00011015, No Iterations 4
ExecutionTime = 17.02 s  ClockTime = 17 s

forceCoeffs forceCoeffs1 write:
    Cm    = 0.152032
    Cd    = 0.402894
    Cl    = 0.0718486
    Cl(f) = 0.187957
    Cl(r) = -0.116108

Time = 73

smoothSolver:  Solving for Ux, Initial residual = 0.00117436, Final residual = 9.3041e-05, No Iterations 10
smoothSolver:  Solving for Uy, Initial residual = 0.0240368, Final residual = 0.00213353, No Iterations 9
smoothSolver:  Solving for Uz, Initial residual = 0.0251156, Final residual = 0.00229983, No Iterations 9
GAMG:  Solving for p, Initial residual = 0.010928, Final residual = 8.84042e-05, No Iterations 4
time step continuity errors : sum local = 0.000135119, global = 4.11231e-06, cumulative = -7.55197e-05
smoothSolver:  Solving for omega, Initial residual = 0.000157782, Final residual = 1.33131e-05, No Iterations 3
smoothSolver:  Solving for k, Initial residual = 0.00203514, Final residual = 0.000109624, No Iterations 4
ExecutionTime = 17.23 s  ClockTime = 18 s

forceCoeffs forceCoeffs1 write:
    Cm    = 0.152841
    Cd    = 0.403164
    Cl    = 0.0710815
    Cl(f) = 0.188382
    Cl(r) = -0.117301

Time = 74

smoothSolver:  Solving for Ux, Initial residual = 0.00114708, Final residual = 0.000114607, No Iterations 9
smoothSolver:  Solving for Uy, Initial residual = 0.0237042, Final residual = 0.00208239, No Iterations 9
smoothSolver:  Solving for Uz, Initial residual = 0.0246221, Final residual = 0.0022598, No Iterations 9
GAMG:  Solving for p, Initial residual = 0.0108426, Final residual = 8.54099e-05, No Iterations 4
time step continuity errors : sum local = 0.000130609, global = 3.76271e-06, cumulative = -7.1757e-05
smoothSolver:  Solving for omega, Initial residual = 0.000156068, Final residual = 1.31387e-05, No Iterations 3
smoothSolver:  Solving for k, Initial residual = 0.00202032, Final residual = 0.0001088, No Iterations 4
ExecutionTime = 17.42 s  ClockTime = 18 s

forceCoeffs forceCoeffs1 write:
    Cm    = 0.153666
    Cd    = 0.403512
    Cl    = 0.0702414
    Cl(f) = 0.188787
    Cl(r) = -0.118546

Time = 75

smoothSolver:  Solving for Ux, Initial residual = 0.00112604, Final residual = 0.000111797, No Iterations 9
smoothSolver:  Solving for Uy, Initial residual = 0.0233997, Final residual = 0.00204362, No Iterations 9
smoothSolver:  Solving for Uz, Initial residual = 0.0240164, Final residual = 0.00220815, No Iterations 9
GAMG:  Solving for p, Initial residual = 0.0107642, Final residual = 8.27301e-05, No Iterations 4
time step continuity errors : sum local = 0.000126539, global = 2.89691e-06, cumulative = -6.88601e-05
smoothSolver:  Solving for omega, Initial residual = 0.000153866, Final residual = 1.29109e-05, No Iterations 3
smoothSolver:  Solving for k, Initial residual = 0.00200721, Final residual = 0.000107594, No Iterations 4
ExecutionTime = 17.62 s  ClockTime = 18 s

forceCoeffs forceCoeffs1 write:
    Cm    = 0.154498
    Cd    = 0.404078
    Cl    = 0.0695721
    Cl(f) = 0.189285
    Cl(r) = -0.119712

Time = 76

smoothSolver:  Solving for Ux, Initial residual = 0.00110653, Final residual = 0.000109426, No Iterations 9
smoothSolver:  Solving for Uy, Initial residual = 0.0231904, Final residual = 0.00202689, No Iterations 9
smoothSolver:  Solving for Uz, Initial residual = 0.0234363, Final residual = 0.00215619, No Iterations 9
GAMG:  Solving for p, Initial residual = 0.0106772, Final residual = 8.0911e-05, No Iterations 4
time step continuity errors : sum local = 0.000123726, global = 1.58303e-06, cumulative = -6.7277e-05
smoothSolver:  Solving for omega, Initial residual = 0.000151787, Final residual = 1.27024e-05, No Iterations 3
smoothSolver:  Solving for k, Initial residual = 0.00199405, Final residual = 0.000106163, No Iterations 4
ExecutionTime = 17.81 s  ClockTime = 18 s

forceCoeffs forceCoeffs1 write:
    Cm    = 0.155147
    Cd    = 0.40479
    Cl    = 0.0692239
    Cl(f) = 0.189759
    Cl(r) = -0.120536

Time = 77

smoothSolver:  Solving for Ux, Initial residual = 0.00108621, Final residual = 0.000107189, No Iterations 9
smoothSolver:  Solving for Uy, Initial residual = 0.0230582, Final residual = 0.00202292, No Iterations 9
smoothSolver:  Solving for Uz, Initial residual = 0.0228977, Final residual = 0.00210005, No Iterations 9
GAMG:  Solving for p, Initial residual = 0.0105819, Final residual = 7.89598e-05, No Iterations 4
time step continuity errors : sum local = 0.00012064, global = 3.11575e-07, cumulative = -6.69655e-05
smoothSolver:  Solving for omega, Initial residual = 0.000149611, Final residual = 1.24951e-05, No Iterations 3
smoothSolver:  Solving for k, Initial residual = 0.00198193, Final residual = 0.000104785, No Iterations 4
ExecutionTime = 18 s  ClockTime = 18 s

forceCoeffs forceCoeffs1 write:
    Cm    = 0.155525
    Cd    = 0.405535
    Cl    = 0.0694314
    Cl(f) = 0.19024
    Cl(r) = -0.120809

Time = 78

smoothSolver:  Solving for Ux, Initial residual = 0.00106748, Final residual = 0.000105184, No Iterations 9
smoothSolver:  Solving for Uy, Initial residual = 0.022906, Final residual = 0.00201789, No Iterations 9
smoothSolver:  Solving for Uz, Initial residual = 0.0224041, Final residual = 0.00204294, No Iterations 9
GAMG:  Solving for p, Initial residual = 0.0104921, Final residual = 7.71323e-05, No Iterations 4
time step continuity errors : sum local = 0.00011763, global = -2.20856e-07, cumulative = -6.71863e-05
smoothSolver:  Solving for omega, Initial residual = 0.000147482, Final residual = 1.22904e-05, No Iterations 3
smoothSolver:  Solving for k, Initial residual = 0.00196427, Final residual = 0.000103823, No Iterations 4
ExecutionTime = 18.19 s  ClockTime = 18 s

forceCoeffs forceCoeffs1 write:
    Cm    = 0.155527
    Cd    = 0.406092
    Cl    = 0.0703066
    Cl(f) = 0.19068
    Cl(r) = -0.120374

Time = 79

smoothSolver:  Solving for Ux, Initial residual = 0.00104857, Final residual = 0.000103245, No Iterations 9
smoothSolver:  Solving for Uy, Initial residual = 0.0227155, Final residual = 0.00200062, No Iterations 9
smoothSolver:  Solving for Uz, Initial residual = 0.0219319, Final residual = 0.0019861, No Iterations 9
GAMG:  Solving for p, Initial residual = 0.0104066, Final residual = 7.66021e-05, No Iterations 4
time step continuity errors : sum local = 0.000116522, global = -3.1621e-07, cumulative = -6.75025e-05
smoothSolver:  Solving for omega, Initial residual = 0.000145604, Final residual = 1.21458e-05, No Iterations 3
smoothSolver:  Solving for k, Initial residual = 0.00194881, Final residual = 0.000103282, No Iterations 4
ExecutionTime = 18.39 s  ClockTime = 19 s

forceCoeffs forceCoeffs1 write:
    Cm    = 0.155289
    Cd    = 0.406462
    Cl    = 0.0718179
    Cl(f) = 0.191198
    Cl(r) = -0.119381

Time = 80

smoothSolver:  Solving for Ux, Initial residual = 0.00102945, Final residual = 0.000101238, No Iterations 9
smoothSolver:  Solving for Uy, Initial residual = 0.0224391, Final residual = 0.00197799, No Iterations 9
smoothSolver:  Solving for Uz, Initial residual = 0.0214288, Final residual = 0.00193149, No Iterations 9
GAMG:  Solving for p, Initial residual = 0.0103188, Final residual = 7.73259e-05, No Iterations 4
time step continuity errors : sum local = 0.000117303, global = -2.86109e-07, cumulative = -6.77886e-05
smoothSolver:  Solving for omega, Initial residual = 0.000143848, Final residual = 1.20191e-05, No Iterations 3
bounding omega, min: -6.70942 max: 108530 average: 947.912
smoothSolver:  Solving for k, Initial residual = 0.001927, Final residual = 0.000102518, No Iterations 4
ExecutionTime = 18.6 s  ClockTime = 19 s

forceCoeffs forceCoeffs1 write:
    Cm    = 0.154933
    Cd    = 0.406602
    Cl    = 0.0737202
    Cl(f) = 0.191793
    Cl(r) = -0.118073

Time = 81

smoothSolver:  Solving for Ux, Initial residual = 0.00101089, Final residual = 9.92123e-05, No Iterations 9
smoothSolver:  Solving for Uy, Initial residual = 0.0220711, Final residual = 0.00194552, No Iterations 9
smoothSolver:  Solving for Uz, Initial residual = 0.0208917, Final residual = 0.00187731, No Iterations 9
GAMG:  Solving for p, Initial residual = 0.0102023, Final residual = 7.92896e-05, No Iterations 4
time step continuity errors : sum local = 0.000119968, global = -2.77772e-07, cumulative = -6.80664e-05
smoothSolver:  Solving for omega, Initial residual = 0.000142761, Final residual = 1.18736e-05, No Iterations 3
smoothSolver:  Solving for k, Initial residual = 0.00190709, Final residual = 0.000101515, No Iterations 4
ExecutionTime = 18.79 s  ClockTime = 19 s

forceCoeffs forceCoeffs1 write:
    Cm    = 0.154623
    Cd    = 0.406573
    Cl    = 0.0755709
    Cl(f) = 0.192409
    Cl(r) = -0.116838

Time = 82

smoothSolver:  Solving for Ux, Initial residual = 0.00099254, Final residual = 9.71019e-05, No Iterations 9
smoothSolver:  Solving for Uy, Initial residual = 0.0217392, Final residual = 0.00191069, No Iterations 9
smoothSolver:  Solving for Uz, Initial residual = 0.020404, Final residual = 0.00183059, No Iterations 9
GAMG:  Solving for p, Initial residual = 0.0100396, Final residual = 8.18114e-05, No Iterations 4
time step continuity errors : sum local = 0.000123493, global = -3.8432e-07, cumulative = -6.84507e-05
smoothSolver:  Solving for omega, Initial residual = 0.000140817, Final residual = 1.17521e-05, No Iterations 3
smoothSolver:  Solving for k, Initial residual = 0.001887, Final residual = 0.000100484, No Iterations 4
ExecutionTime = 18.99 s  ClockTime = 19 s

forceCoeffs forceCoeffs1 write:
    Cm    = 0.154398
    Cd    = 0.406505
    Cl    = 0.0768871
    Cl(f) = 0.192841
    Cl(r) = -0.115954

Time = 83

smoothSolver:  Solving for Ux, Initial residual = 0.000973223, Final residual = 9.53466e-05, No Iterations 9
smoothSolver:  Solving for Uy, Initial residual = 0.0215094, Final residual = 0.00188053, No Iterations 9
smoothSolver:  Solving for Uz, Initial residual = 0.01996, Final residual = 0.00178016, No Iterations 9
GAMG:  Solving for p, Initial residual = 0.00988815, Final residual = 8.33811e-05, No Iterations 4
time step continuity errors : sum local = 0.000125628, global = -7.75019e-07, cumulative = -6.92258e-05
smoothSolver:  Solving for omega, Initial residual = 0.000139272, Final residual = 1.1606e-05, No Iterations 3
smoothSolver:  Solving for k, Initial residual = 0.00186671, Final residual = 9.96556e-05, No Iterations 4
ExecutionTime = 19.18 s  ClockTime = 19 s

forceCoeffs forceCoeffs1 write:
    Cm    = 0.154325
    Cd    = 0.406479
    Cl    = 0.0775272
    Cl(f) = 0.193089
    Cl(r) = -0.115562

Time = 84

smoothSolver:  Solving for Ux, Initial residual = 0.000955121, Final residual = 9.33952e-05, No Iterations 9
smoothSolver:  Solving for Uy, Initial residual = 0.0213496, Final residual = 0.00185262, No Iterations 9
smoothSolver:  Solving for Uz, Initial residual = 0.0195521, Final residual = 0.00173038, No Iterations 9
GAMG:  Solving for p, Initial residual = 0.00977169, Final residual = 8.34323e-05, No Iterations 4
time step continuity errors : sum local = 0.000125506, global = -1.48401e-06, cumulative = -7.07098e-05
smoothSolver:  Solving for omega, Initial residual = 0.000138295, Final residual = 1.14718e-05, No Iterations 3
smoothSolver:  Solving for k, Initial residual = 0.00185341, Final residual = 9.9117e-05, No Iterations 4
ExecutionTime = 19.4 s  ClockTime = 20 s

forceCoeffs forceCoeffs1 write:
    Cm    = 0.154436
    Cd    = 0.406538
    Cl    = 0.0775478
    Cl(f) = 0.19321
    Cl(r) = -0.115662

Time = 85

smoothSolver:  Solving for Ux, Initial residual = 0.000939196, Final residual = 9.16712e-05, No Iterations 9
smoothSolver:  Solving for Uy, Initial residual = 0.0213049, Final residual = 0.00183428, No Iterations 9
smoothSolver:  Solving for Uz, Initial residual = 0.0191918, Final residual = 0.00168706, No Iterations 9
GAMG:  Solving for p, Initial residual = 0.0096967, Final residual = 8.19398e-05, No Iterations 4
time step continuity errors : sum local = 0.00012312, global = -2.4021e-06, cumulative = -7.31119e-05
smoothSolver:  Solving for omega, Initial residual = 0.000136288, Final residual = 1.13033e-05, No Iterations 3
smoothSolver:  Solving for k, Initial residual = 0.0018413, Final residual = 9.86995e-05, No Iterations 4
ExecutionTime = 19.59 s  ClockTime = 20 s

forceCoeffs forceCoeffs1 write:
    Cm    = 0.154729
    Cd    = 0.406626
    Cl    = 0.0771014
    Cl(f) = 0.19328
    Cl(r) = -0.116178

Time = 86

smoothSolver:  Solving for Ux, Initial residual = 0.000926598, Final residual = 9.02658e-05, No Iterations 9
smoothSolver:  Solving for Uy, Initial residual = 0.0212877, Final residual = 0.00181321, No Iterations 9
smoothSolver:  Solving for Uz, Initial residual = 0.0187922, Final residual = 0.00164833, No Iterations 9
GAMG:  Solving for p, Initial residual = 0.00963254, Final residual = 7.92215e-05, No Iterations 4
time step continuity errors : sum local = 0.000118938, global = -3.16931e-06, cumulative = -7.62812e-05
smoothSolver:  Solving for omega, Initial residual = 0.000135296, Final residual = 1.11642e-05, No Iterations 3
smoothSolver:  Solving for k, Initial residual = 0.00183417, Final residual = 9.80804e-05, No Iterations 4
ExecutionTime = 19.8 s  ClockTime = 20 s

forceCoeffs forceCoeffs1 write:
    Cm    = 0.155163
    Cd    = 0.40675
    Cl    = 0.0764067
    Cl(f) = 0.193366
    Cl(r) = -0.11696

Time = 87

smoothSolver:  Solving for Ux, Initial residual = 0.000917384, Final residual = 8.89074e-05, No Iterations 9
smoothSolver:  Solving for Uy, Initial residual = 0.021191, Final residual = 0.0017915, No Iterations 9
smoothSolver:  Solving for Uz, Initial residual = 0.0183702, Final residual = 0.00160738, No Iterations 9
GAMG:  Solving for p, Initial residual = 0.00957397, Final residual = 7.58033e-05, No Iterations 4
time step continuity errors : sum local = 0.000113745, global = -3.61475e-06, cumulative = -7.98959e-05
smoothSolver:  Solving for omega, Initial residual = 0.000134333, Final residual = 1.10517e-05, No Iterations 3
smoothSolver:  Solving for k, Initial residual = 0.00183032, Final residual = 9.72086e-05, No Iterations 4
ExecutionTime = 19.99 s  ClockTime = 20 s

forceCoeffs forceCoeffs1 write:
    Cm    = 0.155756
    Cd    = 0.406921
    Cl    = 0.075743
    Cl(f) = 0.193627
    Cl(r) = -0.117884

Time = 88

smoothSolver:  Solving for Ux, Initial residual = 0.000909261, Final residual = 8.76856e-05, No Iterations 9
smoothSolver:  Solving for Uy, Initial residual = 0.0210963, Final residual = 0.00177668, No Iterations 9
smoothSolver:  Solving for Uz, Initial residual = 0.0179791, Final residual = 0.0015661, No Iterations 9
GAMG:  Solving for p, Initial residual = 0.0095286, Final residual = 7.32157e-05, No Iterations 4
time step continuity errors : sum local = 0.000109811, global = -3.4111e-06, cumulative = -8.3307e-05
smoothSolver:  Solving for omega, Initial residual = 0.000133569, Final residual = 1.09705e-05, No Iterations 3
smoothSolver:  Solving for k, Initial residual = 0.00182527, Final residual = 9.65093e-05, No Iterations 4
ExecutionTime = 20.18 s  ClockTime = 20 s

forceCoeffs forceCoeffs1 write:
    Cm    = 0.156409
    Cd    = 0.407147
    Cl    = 0.0751346
    Cl(f) = 0.193976
    Cl(r) = -0.118842

Time = 89

smoothSolver:  Solving for Ux, Initial residual = 0.000900676, Final residual = 8.67914e-05, No Iterations 9
smoothSolver:  Solving for Uy, Initial residual = 0.0209405, Final residual = 0.00177516, No Iterations 9
smoothSolver:  Solving for Uz, Initial residual = 0.0176299, Final residual = 0.00153367, No Iterations 9
GAMG:  Solving for p, Initial residual = 0.00948485, Final residual = 7.29785e-05, No Iterations 4
time step continuity errors : sum local = 0.000109393, global = -2.9509e-06, cumulative = -8.62579e-05
smoothSolver:  Solving for omega, Initial residual = 0.000133005, Final residual = 1.09023e-05, No Iterations 3
smoothSolver:  Solving for k, Initial residual = 0.00181802, Final residual = 9.63798e-05, No Iterations 4
ExecutionTime = 20.38 s  ClockTime = 21 s

forceCoeffs forceCoeffs1 write:
    Cm    = 0.15703
    Cd    = 0.407274
    Cl    = 0.074732
    Cl(f) = 0.194396
    Cl(r) = -0.119664

Time = 90

smoothSolver:  Solving for Ux, Initial residual = 0.000891836, Final residual = 8.61953e-05, No Iterations 9
smoothSolver:  Solving for Uy, Initial residual = 0.020788, Final residual = 0.00178452, No Iterations 9
smoothSolver:  Solving for Uz, Initial residual = 0.0173708, Final residual = 0.00151912, No Iterations 9
GAMG:  Solving for p, Initial residual = 0.00944254, Final residual = 7.40686e-05, No Iterations 4
time step continuity errors : sum local = 0.000110955, global = -2.61872e-06, cumulative = -8.88766e-05
smoothSolver:  Solving for omega, Initial residual = 0.000132377, Final residual = 1.08261e-05, No Iterations 3
smoothSolver:  Solving for k, Initial residual = 0.0018092, Final residual = 9.59005e-05, No Iterations 4
ExecutionTime = 20.57 s  ClockTime = 21 s

forceCoeffs forceCoeffs1 write:
    Cm    = 0.157493
    Cd    = 0.407234
    Cl    = 0.0744559
    Cl(f) = 0.194721
    Cl(r) = -0.120265

Time = 91

smoothSolver:  Solving for Ux, Initial residual = 0.000885663, Final residual = 8.60582e-05, No Iterations 9
smoothSolver:  Solving for Uy, Initial residual = 0.0206611, Final residual = 0.00179207, No Iterations 9
smoothSolver:  Solving for Uz, Initial residual = 0.0172415, Final residual = 0.00152062, No Iterations 9
GAMG:  Solving for p, Initial residual = 0.00940355, Final residual = 7.43639e-05, No Iterations 4
time step continuity errors : sum local = 0.000111312, global = -2.396e-06, cumulative = -9.12726e-05
smoothSolver:  Solving for omega, Initial residual = 0.000131503, Final residual = 1.074e-05, No Iterations 3
smoothSolver:  Solving for k, Initial residual = 0.0018004, Final residual = 9.4943e-05, No Iterations 4
ExecutionTime = 20.78 s  ClockTime = 21 s

forceCoeffs forceCoeffs1 write:
    Cm    = 0.157827
    Cd    = 0.407046
    Cl    = 0.0742574
    Cl(f) = 0.194956
    Cl(r) = -0.120698

Time = 92

smoothSolver:  Solving for Ux, Initial residual = 0.000884176, Final residual = 8.64977e-05, No Iterations 9
smoothSolver:  Solving for Uy, Initial residual = 0.0205899, Final residual = 0.00179024, No Iterations 9
smoothSolver:  Solving for Uz, Initial residual = 0.0172629, Final residual = 0.00152884, No Iterations 9
GAMG:  Solving for p, Initial residual = 0.00937656, Final residual = 7.36268e-05, No Iterations 4
time step continuity errors : sum local = 0.000110104, global = -2.13859e-06, cumulative = -9.34112e-05
smoothSolver:  Solving for omega, Initial residual = 0.000131083, Final residual = 1.06555e-05, No Iterations 3
smoothSolver:  Solving for k, Initial residual = 0.00179483, Final residual = 9.38769e-05, No Iterations 4
ExecutionTime = 20.97 s  ClockTime = 21 s

forceCoeffs forceCoeffs1 write:
    Cm    = 0.158076
    Cd    = 0.406864
    Cl    = 0.0739009
    Cl(f) = 0.195026
    Cl(r) = -0.121125

Time = 93

smoothSolver:  Solving for Ux, Initial residual = 0.000886993, Final residual = 8.69925e-05, No Iterations 9
smoothSolver:  Solving for Uy, Initial residual = 0.0206048, Final residual = 0.00178535, No Iterations 9
smoothSolver:  Solving for Uz, Initial residual = 0.017351, Final residual = 0.00154136, No Iterations 9
GAMG:  Solving for p, Initial residual = 0.0093449, Final residual = 7.21616e-05, No Iterations 4
time step continuity errors : sum local = 0.000107797, global = -1.67446e-06, cumulative = -9.50857e-05
smoothSolver:  Solving for omega, Initial residual = 0.000130099, Final residual = 1.05635e-05, No Iterations 3
bounding omega, min: -10.8876 max: 108530 average: 950.218
smoothSolver:  Solving for k, Initial residual = 0.00179555, Final residual = 9.29913e-05, No Iterations 4
ExecutionTime = 21.17 s  ClockTime = 21 s

forceCoeffs forceCoeffs1 write:
    Cm    = 0.158219
    Cd    = 0.406572
    Cl    = 0.0734685
    Cl(f) = 0.194953
    Cl(r) = -0.121485

Time = 94

smoothSolver:  Solving for Ux, Initial residual = 0.000889912, Final residual = 8.73967e-05, No Iterations 9
smoothSolver:  Solving for Uy, Initial residual = 0.0206379, Final residual = 0.0017927, No Iterations 9
smoothSolver:  Solving for Uz, Initial residual = 0.0173972, Final residual = 0.00155475, No Iterations 9
GAMG:  Solving for p, Initial residual = 0.00930043, Final residual = 7.07313e-05, No Iterations 4
time step continuity errors : sum local = 0.00010553, global = -1.3152e-06, cumulative = -9.64009e-05
smoothSolver:  Solving for omega, Initial residual = 0.000128661, Final residual = 1.04627e-05, No Iterations 3
smoothSolver:  Solving for k, Initial residual = 0.00179949, Final residual = 9.28746e-05, No Iterations 4
ExecutionTime = 21.38 s  ClockTime = 22 s

forceCoeffs forceCoeffs1 write:
    Cm    = 0.158205
    Cd    = 0.406165
    Cl    = 0.0729512
    Cl(f) = 0.194681
    Cl(r) = -0.12173

Time = 95

smoothSolver:  Solving for Ux, Initial residual = 0.000890579, Final residual = 8.77077e-05, No Iterations 9
smoothSolver:  Solving for Uy, Initial residual = 0.0206529, Final residual = 0.00180802, No Iterations 9
smoothSolver:  Solving for Uz, Initial residual = 0.0173812, Final residual = 0.00156681, No Iterations 9
GAMG:  Solving for p, Initial residual = 0.00923977, Final residual = 7.01656e-05, No Iterations 4
time step continuity errors : sum local = 0.000104566, global = -1.03729e-06, cumulative = -9.74382e-05
smoothSolver:  Solving for omega, Initial residual = 0.000128009, Final residual = 1.0408e-05, No Iterations 3
smoothSolver:  Solving for k, Initial residual = 0.00180641, Final residual = 9.34632e-05, No Iterations 4
ExecutionTime = 21.57 s  ClockTime = 22 s

forceCoeffs forceCoeffs1 write:
    Cm    = 0.158085
    Cd    = 0.405643
    Cl    = 0.0725258
    Cl(f) = 0.194347
    Cl(r) = -0.121822

Time = 96

smoothSolver:  Solving for Ux, Initial residual = 0.000889794, Final residual = 8.78265e-05, No Iterations 9
smoothSolver:  Solving for Uy, Initial residual = 0.0206492, Final residual = 0.00181918, No Iterations 9
smoothSolver:  Solving for Uz, Initial residual = 0.0173549, Final residual = 0.00157702, No Iterations 9
GAMG:  Solving for p, Initial residual = 0.00917978, Final residual = 6.99156e-05, No Iterations 4
time step continuity errors : sum local = 0.000104089, global = -8.8516e-07, cumulative = -9.83233e-05
smoothSolver:  Solving for omega, Initial residual = 0.000127942, Final residual = 1.03766e-05, No Iterations 3
bounding omega, min: -20.9925 max: 108530 average: 950.116
smoothSolver:  Solving for k, Initial residual = 0.00181143, Final residual = 9.43835e-05, No Iterations 4
ExecutionTime = 21.78 s  ClockTime = 22 s

forceCoeffs forceCoeffs1 write:
    Cm    = 0.157937
    Cd    = 0.405157
    Cl    = 0.0722333
    Cl(f) = 0.194054
    Cl(r) = -0.12182

Time = 97

smoothSolver:  Solving for Ux, Initial residual = 0.000888856, Final residual = 8.7827e-05, No Iterations 9
smoothSolver:  Solving for Uy, Initial residual = 0.0206378, Final residual = 0.00183226, No Iterations 9
smoothSolver:  Solving for Uz, Initial residual = 0.0173755, Final residual = 0.00158252, No Iterations 9
GAMG:  Solving for p, Initial residual = 0.00911405, Final residual = 7.00057e-05, No Iterations 4
time step continuity errors : sum local = 0.000104144, global = -8.93426e-07, cumulative = -9.92168e-05
smoothSolver:  Solving for omega, Initial residual = 0.000127661, Final residual = 1.03644e-05, No Iterations 3
smoothSolver:  Solving for k, Initial residual = 0.00181237, Final residual = 9.48961e-05, No Iterations 4
ExecutionTime = 21.97 s  ClockTime = 22 s

forceCoeffs forceCoeffs1 write:
    Cm    = 0.157859
    Cd    = 0.404737
    Cl    = 0.0721466
    Cl(f) = 0.193933
    Cl(r) = -0.121786

Time = 98

smoothSolver:  Solving for Ux, Initial residual = 0.000887565, Final residual = 8.78533e-05, No Iterations 9
smoothSolver:  Solving for Uy, Initial residual = 0.0206249, Final residual = 0.00185013, No Iterations 9
smoothSolver:  Solving for Uz, Initial residual = 0.0173874, Final residual = 0.00157918, No Iterations 9
GAMG:  Solving for p, Initial residual = 0.00905298, Final residual = 7.1559e-05, No Iterations 4
time step continuity errors : sum local = 0.000106415, global = -4.79872e-07, cumulative = -9.96966e-05
smoothSolver:  Solving for omega, Initial residual = 0.000127417, Final residual = 1.03571e-05, No Iterations 3
bounding omega, min: -18.8681 max: 108530 average: 950.005
smoothSolver:  Solving for k, Initial residual = 0.00181003, Final residual = 9.48882e-05, No Iterations 4
ExecutionTime = 22.17 s  ClockTime = 22 s

forceCoeffs forceCoeffs1 write:
    Cm    = 0.157842
    Cd    = 0.40446
    Cl    = 0.0722294
    Cl(f) = 0.193957
    Cl(r) = -0.121727

Time = 99

smoothSolver:  Solving for Ux, Initial residual = 0.000888713, Final residual = 8.81098e-05, No Iterations 9
smoothSolver:  Solving for Uy, Initial residual = 0.0206588, Final residual = 0.00185988, No Iterations 9
smoothSolver:  Solving for Uz, Initial residual = 0.0174512, Final residual = 0.00156816, No Iterations 9
GAMG:  Solving for p, Initial residual = 0.00901212, Final residual = 7.39182e-05, No Iterations 4
time step continuity errors : sum local = 0.000109931, global = -6.74451e-08, cumulative = -9.97641e-05
smoothSolver:  Solving for omega, Initial residual = 0.000127411, Final residual = 1.03742e-05, No Iterations 3
smoothSolver:  Solving for k, Initial residual = 0.00181032, Final residual = 9.46939e-05, No Iterations 4
ExecutionTime = 22.38 s  ClockTime = 23 s

forceCoeffs forceCoeffs1 write:
    Cm    = 0.157906
    Cd    = 0.404309
    Cl    = 0.0725495
    Cl(f) = 0.194181
    Cl(r) = -0.121631

Time = 100

smoothSolver:  Solving for Ux, Initial residual = 0.000891677, Final residual = 8.84686e-05, No Iterations 9
smoothSolver:  Solving for Uy, Initial residual = 0.0207605, Final residual = 0.00185877, No Iterations 9
smoothSolver:  Solving for Uz, Initial residual = 0.0175679, Final residual = 0.0015581, No Iterations 9
GAMG:  Solving for p, Initial residual = 0.00900937, Final residual = 7.56055e-05, No Iterations 4
time step continuity errors : sum local = 0.000112526, global = 2.1871e-07, cumulative = -9.95454e-05
smoothSolver:  Solving for omega, Initial residual = 0.00012701, Final residual = 1.03569e-05, No Iterations 3
smoothSolver:  Solving for k, Initial residual = 0.00181521, Final residual = 9.4787e-05, No Iterations 4
ExecutionTime = 22.58 s  ClockTime = 23 s

forceCoeffs forceCoeffs1 write:
    Cm    = 0.158016
    Cd    = 0.404375
    Cl    = 0.0730727
    Cl(f) = 0.194553
    Cl(r) = -0.12148

End

Finalising parallel run
