/*---------------------------------------------------------------------------*\
  =========                 |
  \\      /  F ield         | OpenFOAM: The Open Source CFD Toolbox
   \\    /   O peration     | Website:  https://openfoam.org
    \\  /    A nd           | Version:  7
     \\/     M anipulation  |
\*---------------------------------------------------------------------------*/
Build  : 7
Exec   : snappyHexMesh -parallel -overwrite
Date   : Oct 14 2020
Time   : 17:38:55
Host   : "cpu-p-288"
PID    : 130723
I/O    : uncollated
Case   : /rds/user/hpcbras1/hpc-work/csd3/cclake-roce-gcc9-ompi3-ucx/openfoam/Openfoam_Mbike_csd3_cclake_roce_gcc9_ompi3_ucx_448_56
nProcs : 448
Slaves : 
447
(
"cpu-p-288.130724"
"cpu-p-288.130725"
"cpu-p-288.130726"
"cpu-p-288.130727"
"cpu-p-288.130728"
"cpu-p-288.130729"
"cpu-p-288.130730"
"cpu-p-288.130731"
"cpu-p-288.130732"
"cpu-p-288.130733"
"cpu-p-288.130734"
"cpu-p-288.130735"
"cpu-p-288.130736"
"cpu-p-288.130737"
"cpu-p-288.130738"
"cpu-p-288.130739"
"cpu-p-288.130740"
"cpu-p-288.130741"
"cpu-p-288.130742"
"cpu-p-288.130743"
"cpu-p-288.130744"
"cpu-p-288.130745"
"cpu-p-288.130746"
"cpu-p-288.130747"
"cpu-p-288.130748"
"cpu-p-288.130749"
"cpu-p-288.130750"
"cpu-p-288.130751"
"cpu-p-288.130752"
"cpu-p-288.130753"
"cpu-p-288.130754"
"cpu-p-288.130755"
"cpu-p-288.130756"
"cpu-p-288.130757"
"cpu-p-288.130758"
"cpu-p-288.130759"
"cpu-p-288.130760"
"cpu-p-288.130761"
"cpu-p-288.130762"
"cpu-p-288.130763"
"cpu-p-288.130764"
"cpu-p-288.130768"
"cpu-p-288.130773"
"cpu-p-288.130779"
"cpu-p-288.130780"
"cpu-p-288.130783"
"cpu-p-288.130786"
"cpu-p-288.130789"
"cpu-p-288.130792"
"cpu-p-288.130794"
"cpu-p-288.130797"
"cpu-p-288.130799"
"cpu-p-288.130801"
"cpu-p-288.130804"
"cpu-p-288.130808"
"cpu-p-289.125948"
"cpu-p-289.125949"
"cpu-p-289.125950"
"cpu-p-289.125951"
"cpu-p-289.125952"
"cpu-p-289.125953"
"cpu-p-289.125954"
"cpu-p-289.125955"
"cpu-p-289.125956"
"cpu-p-289.125957"
"cpu-p-289.125958"
"cpu-p-289.125959"
"cpu-p-289.125960"
"cpu-p-289.125961"
"cpu-p-289.125962"
"cpu-p-289.125963"
"cpu-p-289.125964"
"cpu-p-289.125965"
"cpu-p-289.125966"
"cpu-p-289.125967"
"cpu-p-289.125968"
"cpu-p-289.125969"
"cpu-p-289.125970"
"cpu-p-289.125971"
"cpu-p-289.125972"
"cpu-p-289.125973"
"cpu-p-289.125974"
"cpu-p-289.125975"
"cpu-p-289.125976"
"cpu-p-289.125977"
"cpu-p-289.125978"
"cpu-p-289.125979"
"cpu-p-289.125980"
"cpu-p-289.125981"
"cpu-p-289.125982"
"cpu-p-289.125983"
"cpu-p-289.125984"
"cpu-p-289.125985"
"cpu-p-289.125986"
"cpu-p-289.125987"
"cpu-p-289.125988"
"cpu-p-289.125989"
"cpu-p-289.125990"
"cpu-p-289.125991"
"cpu-p-289.125992"
"cpu-p-289.125993"
"cpu-p-289.125994"
"cpu-p-289.125995"
"cpu-p-289.125996"
"cpu-p-289.125997"
"cpu-p-289.125998"
"cpu-p-289.125999"
"cpu-p-289.126000"
"cpu-p-289.126005"
"cpu-p-289.126021"
"cpu-p-289.126029"
"cpu-p-290.54261"
"cpu-p-290.54262"
"cpu-p-290.54263"
"cpu-p-290.54264"
"cpu-p-290.54265"
"cpu-p-290.54266"
"cpu-p-290.54267"
"cpu-p-290.54268"
"cpu-p-290.54269"
"cpu-p-290.54270"
"cpu-p-290.54271"
"cpu-p-290.54272"
"cpu-p-290.54273"
"cpu-p-290.54274"
"cpu-p-290.54275"
"cpu-p-290.54276"
"cpu-p-290.54277"
"cpu-p-290.54278"
"cpu-p-290.54279"
"cpu-p-290.54280"
"cpu-p-290.54281"
"cpu-p-290.54282"
"cpu-p-290.54283"
"cpu-p-290.54284"
"cpu-p-290.54285"
"cpu-p-290.54286"
"cpu-p-290.54287"
"cpu-p-290.54288"
"cpu-p-290.54289"
"cpu-p-290.54290"
"cpu-p-290.54291"
"cpu-p-290.54292"
"cpu-p-290.54293"
"cpu-p-290.54294"
"cpu-p-290.54295"
"cpu-p-290.54296"
"cpu-p-290.54297"
"cpu-p-290.54298"
"cpu-p-290.54299"
"cpu-p-290.54300"
"cpu-p-290.54301"
"cpu-p-290.54302"
"cpu-p-290.54303"
"cpu-p-290.54304"
"cpu-p-290.54305"
"cpu-p-290.54306"
"cpu-p-290.54317"
"cpu-p-290.54319"
"cpu-p-290.54326"
"cpu-p-290.54332"
"cpu-p-290.54336"
"cpu-p-290.54339"
"cpu-p-290.54343"
"cpu-p-290.54346"
"cpu-p-290.54363"
"cpu-p-290.54365"
"cpu-p-291.250306"
"cpu-p-291.250307"
"cpu-p-291.250308"
"cpu-p-291.250309"
"cpu-p-291.250310"
"cpu-p-291.250311"
"cpu-p-291.250312"
"cpu-p-291.250313"
"cpu-p-291.250314"
"cpu-p-291.250315"
"cpu-p-291.250316"
"cpu-p-291.250317"
"cpu-p-291.250318"
"cpu-p-291.250319"
"cpu-p-291.250320"
"cpu-p-291.250321"
"cpu-p-291.250322"
"cpu-p-291.250323"
"cpu-p-291.250324"
"cpu-p-291.250325"
"cpu-p-291.250326"
"cpu-p-291.250327"
"cpu-p-291.250328"
"cpu-p-291.250329"
"cpu-p-291.250330"
"cpu-p-291.250331"
"cpu-p-291.250332"
"cpu-p-291.250333"
"cpu-p-291.250334"
"cpu-p-291.250335"
"cpu-p-291.250336"
"cpu-p-291.250337"
"cpu-p-291.250338"
"cpu-p-291.250339"
"cpu-p-291.250340"
"cpu-p-291.250341"
"cpu-p-291.250342"
"cpu-p-291.250343"
"cpu-p-291.250344"
"cpu-p-291.250345"
"cpu-p-291.250346"
"cpu-p-291.250347"
"cpu-p-291.250348"
"cpu-p-291.250349"
"cpu-p-291.250350"
"cpu-p-291.250351"
"cpu-p-291.250352"
"cpu-p-291.250353"
"cpu-p-291.250360"
"cpu-p-291.250363"
"cpu-p-291.250367"
"cpu-p-291.250374"
"cpu-p-291.250376"
"cpu-p-291.250378"
"cpu-p-291.250381"
"cpu-p-291.250385"
"cpu-p-292.54073"
"cpu-p-292.54074"
"cpu-p-292.54075"
"cpu-p-292.54076"
"cpu-p-292.54077"
"cpu-p-292.54078"
"cpu-p-292.54079"
"cpu-p-292.54080"
"cpu-p-292.54081"
"cpu-p-292.54082"
"cpu-p-292.54083"
"cpu-p-292.54084"
"cpu-p-292.54085"
"cpu-p-292.54086"
"cpu-p-292.54087"
"cpu-p-292.54088"
"cpu-p-292.54089"
"cpu-p-292.54090"
"cpu-p-292.54091"
"cpu-p-292.54092"
"cpu-p-292.54093"
"cpu-p-292.54094"
"cpu-p-292.54095"
"cpu-p-292.54096"
"cpu-p-292.54097"
"cpu-p-292.54098"
"cpu-p-292.54099"
"cpu-p-292.54100"
"cpu-p-292.54101"
"cpu-p-292.54102"
"cpu-p-292.54103"
"cpu-p-292.54104"
"cpu-p-292.54105"
"cpu-p-292.54106"
"cpu-p-292.54107"
"cpu-p-292.54108"
"cpu-p-292.54109"
"cpu-p-292.54110"
"cpu-p-292.54111"
"cpu-p-292.54112"
"cpu-p-292.54113"
"cpu-p-292.54114"
"cpu-p-292.54115"
"cpu-p-292.54116"
"cpu-p-292.54117"
"cpu-p-292.54118"
"cpu-p-292.54119"
"cpu-p-292.54120"
"cpu-p-292.54121"
"cpu-p-292.54122"
"cpu-p-292.54123"
"cpu-p-292.54134"
"cpu-p-292.54146"
"cpu-p-292.54150"
"cpu-p-292.54151"
"cpu-p-292.54155"
"cpu-p-293.44859"
"cpu-p-293.44860"
"cpu-p-293.44861"
"cpu-p-293.44862"
"cpu-p-293.44863"
"cpu-p-293.44864"
"cpu-p-293.44865"
"cpu-p-293.44866"
"cpu-p-293.44867"
"cpu-p-293.44868"
"cpu-p-293.44869"
"cpu-p-293.44870"
"cpu-p-293.44871"
"cpu-p-293.44872"
"cpu-p-293.44873"
"cpu-p-293.44874"
"cpu-p-293.44875"
"cpu-p-293.44876"
"cpu-p-293.44877"
"cpu-p-293.44878"
"cpu-p-293.44879"
"cpu-p-293.44880"
"cpu-p-293.44881"
"cpu-p-293.44882"
"cpu-p-293.44883"
"cpu-p-293.44884"
"cpu-p-293.44885"
"cpu-p-293.44886"
"cpu-p-293.44887"
"cpu-p-293.44888"
"cpu-p-293.44889"
"cpu-p-293.44890"
"cpu-p-293.44891"
"cpu-p-293.44892"
"cpu-p-293.44893"
"cpu-p-293.44894"
"cpu-p-293.44895"
"cpu-p-293.44896"
"cpu-p-293.44897"
"cpu-p-293.44898"
"cpu-p-293.44899"
"cpu-p-293.44900"
"cpu-p-293.44901"
"cpu-p-293.44902"
"cpu-p-293.44903"
"cpu-p-293.44904"
"cpu-p-293.44905"
"cpu-p-293.44906"
"cpu-p-293.44907"
"cpu-p-293.44908"
"cpu-p-293.44909"
"cpu-p-293.44910"
"cpu-p-293.44916"
"cpu-p-293.44926"
"cpu-p-293.44932"
"cpu-p-293.44936"
"cpu-p-294.44855"
"cpu-p-294.44856"
"cpu-p-294.44857"
"cpu-p-294.44858"
"cpu-p-294.44859"
"cpu-p-294.44860"
"cpu-p-294.44861"
"cpu-p-294.44862"
"cpu-p-294.44863"
"cpu-p-294.44864"
"cpu-p-294.44865"
"cpu-p-294.44866"
"cpu-p-294.44867"
"cpu-p-294.44868"
"cpu-p-294.44869"
"cpu-p-294.44870"
"cpu-p-294.44871"
"cpu-p-294.44872"
"cpu-p-294.44873"
"cpu-p-294.44874"
"cpu-p-294.44875"
"cpu-p-294.44876"
"cpu-p-294.44877"
"cpu-p-294.44878"
"cpu-p-294.44879"
"cpu-p-294.44880"
"cpu-p-294.44881"
"cpu-p-294.44882"
"cpu-p-294.44883"
"cpu-p-294.44884"
"cpu-p-294.44885"
"cpu-p-294.44886"
"cpu-p-294.44887"
"cpu-p-294.44888"
"cpu-p-294.44889"
"cpu-p-294.44890"
"cpu-p-294.44891"
"cpu-p-294.44892"
"cpu-p-294.44893"
"cpu-p-294.44894"
"cpu-p-294.44895"
"cpu-p-294.44896"
"cpu-p-294.44897"
"cpu-p-294.44898"
"cpu-p-294.44899"
"cpu-p-294.44900"
"cpu-p-294.44901"
"cpu-p-294.44902"
"cpu-p-294.44903"
"cpu-p-294.44913"
"cpu-p-294.44926"
"cpu-p-294.44930"
"cpu-p-294.44932"
"cpu-p-294.44940"
"cpu-p-294.44944"
"cpu-p-294.44948"
"cpu-p-295.183658"
"cpu-p-295.183659"
"cpu-p-295.183660"
"cpu-p-295.183661"
"cpu-p-295.183662"
"cpu-p-295.183663"
"cpu-p-295.183664"
"cpu-p-295.183665"
"cpu-p-295.183666"
"cpu-p-295.183667"
"cpu-p-295.183668"
"cpu-p-295.183669"
"cpu-p-295.183670"
"cpu-p-295.183671"
"cpu-p-295.183672"
"cpu-p-295.183673"
"cpu-p-295.183674"
"cpu-p-295.183675"
"cpu-p-295.183676"
"cpu-p-295.183677"
"cpu-p-295.183678"
"cpu-p-295.183679"
"cpu-p-295.183680"
"cpu-p-295.183681"
"cpu-p-295.183682"
"cpu-p-295.183683"
"cpu-p-295.183684"
"cpu-p-295.183685"
"cpu-p-295.183686"
"cpu-p-295.183687"
"cpu-p-295.183688"
"cpu-p-295.183689"
"cpu-p-295.183690"
"cpu-p-295.183691"
"cpu-p-295.183692"
"cpu-p-295.183693"
"cpu-p-295.183694"
"cpu-p-295.183695"
"cpu-p-295.183696"
"cpu-p-295.183697"
"cpu-p-295.183698"
"cpu-p-295.183699"
"cpu-p-295.183700"
"cpu-p-295.183701"
"cpu-p-295.183702"
"cpu-p-295.183703"
"cpu-p-295.183704"
"cpu-p-295.183705"
"cpu-p-295.183706"
"cpu-p-295.183707"
"cpu-p-295.183713"
"cpu-p-295.183719"
"cpu-p-295.183732"
"cpu-p-295.183735"
"cpu-p-295.183737"
"cpu-p-295.183742"
)

Pstream initialized with:
    floatTransfer      : 0
    nProcsSimpleSum    : 0
    commsType          : nonBlocking
    polling iterations : 0
sigFpe : Enabling floating point exception trapping (FOAM_SIGFPE).
fileModificationChecking : Monitoring run-time modified files using timeStampMaster (fileModificationSkew 10)
allowSystemOperations : Allowing user-supplied system call operations

// * * * * * * * * * * * * * * * * * * * * * * * * * * * * * * * * * * * * * //
Create time

Create mesh for time = 0

Read mesh in = 0.12 s

Overall mesh bounding box  : (-5 -4 0) (15 4 8)
Relative tolerance         : 1e-06
Absolute matching distance : 2.29783e-05

Reading refinement surfaces.
Read refinement surfaces in = 1.73 s

Reading refinement shells.
Refinement level 4 for all cells inside refinementBox
Read refinement shells in = 0 s

Setting refinement level of surface to be consistent with shells.
Checked shell refinement in = 1.46 s

Reading features.
Read edgeMesh motorBike.eMesh
    points      : 20665
    edges       : 20867
    boundingBox : (-0.241214 -0.337971 -4.232e-05) (1.75115 0.329368 1.21979)

Refinement level according to distance to "motorBike.eMesh" (20665 points, 20867 edges).
    level 6 for all cells within 0 metre.
Read features in = 0.06 s


Determining initial surface intersections
-----------------------------------------

Edge intersection testing:
    Number of edges             : 32256
    Number of edges to retest   : 32256
    Number of intersected edges : 26
Calculated surface intersections in = 0.14 s

Initial mesh : cells:10240  faces:32256  points:11849
Cells per refinement level:
    0	10240

Adding patches for surface regions
----------------------------------

Patch Type                Region                        
----- ----                ------                        
motorBike:

5     wall                motorBike_frt-fairing:001%1   
6     wall                motorBike_windshield:002%2    
7     wall                motorBike_rr-wh-rim:005%5     
8     wall                motorBike_rr-wh-rim:010%10    
9     wall                motorBike_fr-wh-rim:011%11    
10    wall                motorBike_fr-wh-brake-disk:012%12
11    wall                motorBike_frame:016-shadow%13 
12    wall                motorBike_rear-susp:014%14    
13    wall                motorBike_rear-susp:014-shadow%15
14    wall                motorBike_frame:016%16        
15    wall                motorBike_rr-wh-rim:005-shadow%17
16    wall                motorBike_rr-wh-chain-hub:022%22
17    wall                motorBike_rearseat%24         
18    wall                motorBike_frt-fairing%25      
19    wall                motorBike_windshield%26       
20    wall                motorBike_headlights%27       
21    wall                motorBike_driversseat%28      
22    wall                motorBike_rear-body%29        
23    wall                motorBike_fuel-tank%30        
24    wall                motorBike_exhaust%31          
25    wall                motorBike_rr-wh-rim%32        
26    wall                motorBike_fr-mud-guard%33     
27    wall                motorBike_fr-wh-rim%34        
28    wall                motorBike_fr-wh-brake-disk%35 
29    wall                motorBike_fr-brake-caliper%36 
30    wall                motorBike_fr-wh-tyre%37       
31    wall                motorBike_hbars%38            
32    wall                motorBike_fr-forks%39         
33    wall                motorBike_chain%40            
34    wall                motorBike_rr-wh-tyre%41       
35    wall                motorBike_square-dial%42      
36    wall                motorBike_round-dial%43       
37    wall                motorBike_dial-holder%44      
38    wall                motorBike_rear-susp%45        
39    wall                motorBike_rear-brake-lights%46
40    wall                motorBike_rear-light-bracket%47
41    wall                motorBike_frame%48            
42    wall                motorBike_rear-mud-guard%49   
43    wall                motorBike_rear-susp-spring-damp%50
44    wall                motorBike_fairing-inner-plate%51
45    wall                motorBike_clutch-housing%52   
46    wall                motorBike_radiator%53         
47    wall                motorBike_water-pipe%54       
48    wall                motorBike_water-pump%55       
49    wall                motorBike_engine%56           
50    wall                motorBike_rear-shock-link%57  
51    wall                motorBike_rear-brake-fluid-pot-bracket%58
52    wall                motorBike_rear-brake-fluid-pot%59
53    wall                motorBike_footpeg%60          
54    wall                motorBike_rr-wh-chain-hub%61  
55    wall                motorBike_rear-brake-caliper%62
56    wall                motorBike_rider-helmet%65     
57    wall                motorBike_rider-visor%66      
58    wall                motorBike_rider-boots%67      
59    wall                motorBike_rider-gloves%68     
60    wall                motorBike_rider-body%69       
61    wall                motorBike_frame:0%70          
62    wall                motorBike_frt-fairing:001-shadow%74
63    wall                motorBike_windshield-shadow%75
64    wall                motorBike_fr-mud-guard-shadow%81
65    wall                motorBike_fr-wh-brake-disk-shadow%83
[1]  Foam::decompositionMethod::New 
[1] {
[1]     numberOfSubdomains 448;
[1]     method          scotch;
[1]     simpleCoeffs
[1]     {
[1]         n               ( 4 1 1 );
[1]         delta           0.001;
[1]     }
[1]     hierarchicalCoeffs
[1]     {
[1]         n               ( 3 2 1 );
[1]         delta           0.001;
[1]         order           xyz;
[1]     }
[1]     manualCoeffs
[1]     {
[1]         dataFile        "cellDecomposition";
[1]     }
[1] }
[1] 
[1] Selecting decompositionMethod scotch
[2]  Foam::decompositionMethod::New 
[2] {
[2]     numberOfSubdomains 448;
[2]     method          scotch;
[2]     simpleCoeffs
[2]     {
[2]         n               ( 4 1 1 );
[2]         delta           0.001;
[2]     }
[2]     hierarchicalCoeffs
[2]     {
[2]         n               ( 3 2 1 );
[2]         delta           0.001;
[2]         order           xyz;
[2]     }
[2]     manualCoeffs
[2]     {
[2]         dataFile        "cellDecomposition";
[2]     }
[2] }
[2] 
[2] Selecting decompositionMethod scotch
[3]  Foam::decompositionMethod::New 
[3] {
[3]     numberOfSubdomains 448;
[3]     method          scotch;
[3]     simpleCoeffs
[3]     {
[3]         n               ( 4 1 1 );
[3]         delta           0.001;
[3]     }
[3]     hierarchicalCoeffs
[3]     {
[3]         n               ( 3 2 1 );
[3]         delta           0.001;
[3]         order           xyz;
[3]     }
[3]     manualCoeffs
[3]     {
[3]         dataFile        "cellDecomposition";
[3]     }
[3] }
[3] 
[3] Selecting decompositionMethod scotch
[4]  Foam::decompositionMethod::New 
[4] {
[4]     numberOfSubdomains 448;
[4]     method          scotch;
[4]     simpleCoeffs
[4]     {
[4]         n               ( 4 1 1 );
[4]         delta           0.001;
[4]     }
[4]     hierarchicalCoeffs
[4]     {
[4]         n               ( 3 2 1 );
[4]         delta           0.001;
[4]         order           xyz;
[4]     }
[4]     manualCoeffs
[4]     {
[4]         dataFile        "cellDecomposition";
[4]     }
[4] }
[4] 
[4] Selecting decompositionMethod scotch
[5]  Foam::decompositionMethod::New 
[5] {
[5]     numberOfSubdomains 448;
[5]     method          scotch;
[5]     simpleCoeffs
[5]     {
[5]         n               ( 4 1 1 );
[5]         delta           0.001;
[5]     }
[5]     hierarchicalCoeffs
[5]     {
[5]         n               ( 3 2 1 );
[5]         delta           0.001;
[5]         order           xyz;
[5]     }
[5]     manualCoeffs
[5]     {
[5]         dataFile        "cellDecomposition";
[5]     }
[5] }
[5] 
[5] Selecting decompositionMethod scotch
[6]  Foam::decompositionMethod::New 
[6] {
[6]     numberOfSubdomains 448;
[6]     method          scotch;
[6]     simpleCoeffs
[6]     {
[6]         n               ( 4 1 1 );
[6]         delta           0.001;
[6]     }
[6]     hierarchicalCoeffs
[6]     {
[6]         n               ( 3 2 1 );
[6]         delta           0.001;
[6]         order           xyz;
[6]     }
[6]     manualCoeffs
[6]     {
[6]         dataFile        "cellDecomposition";
[6]     }
[6] }
[6] 
[6] Selecting decompositionMethod scotch
[7]  Foam::decompositionMethod::New 
[7] {
[7]     numberOfSubdomains 448;
[7]     method          scotch;
[7]     simpleCoeffs
[7]     {
[7]         n               ( 4 1 1 );
[7]         delta           0.001;
[7]     }
[7]     hierarchicalCoeffs
[7]     {
[7]         n               ( 3 2 1 );
[7]         delta           0.001;
[7]         order           xyz;
[7]     }
[7]     manualCoeffs
[7]     {
[7]         dataFile        "cellDecomposition";
[7]     }
[7] }
[7] 
[7] Selecting decompositionMethod scotch
[8]  Foam::decompositionMethod::New 
[8] {
[8]     numberOfSubdomains 448;
[8]     method          scotch;
[8]     simpleCoeffs
[8]     {
[8]         n               ( 4 1 1 );
[8]         delta           0.001;
[8]     }
[8]     hierarchicalCoeffs
[8]     {
[8]         n               ( 3 2 1 );
[8]         delta           0.001;
[8]         order           xyz;
[8]     }
[8]     manualCoeffs
[8]     {
[8]         dataFile        "cellDecomposition";
[8]     }
[8] }
[8] 
[8] Selecting decompositionMethod scotch
[9]  Foam::decompositionMethod::New 
[9] {
[9]     numberOfSubdomains 448;
[9]     method          scotch;
[9]     simpleCoeffs
[9]     {
[9]         n               ( 4 1 1 );
[9]         delta           0.001;
[9]     }
[9]     hierarchicalCoeffs
[9]     {
[9]         n               ( 3 2 1 );
[9]         delta           0.001;
[9]         order           xyz;
[9]     }
[9]     manualCoeffs
[9]     {
[9]         dataFile        "cellDecomposition";
[9]     }
[9] }
[9] 
[9] Selecting decompositionMethod scotch
[10]  Foam::decompositionMethod::New 
[10] {
[10]     numberOfSubdomains 448;
[10]     method          scotch;
[10]     simpleCoeffs
[10]     {
[10]         n               ( 4 1 1 );
[10]         delta           0.001;
[10]     }
[10]     hierarchicalCoeffs
[10]     {
[10]         n               ( 3 2 1 );
[10]         delta           0.001;
[10]         order           xyz;
[10]     }
[10]     manualCoeffs
[10]     {
[10]         dataFile        "cellDecomposition";
[10]     }
[10] }
[10] 
[10] Selecting decompositionMethod scotch
[11]  Foam::decompositionMethod::New 
[11] {
[11]     numberOfSubdomains 448;
[11]     method          scotch;
[11]     simpleCoeffs
[11]     {
[11]         n               ( 4 1 1 );
[11]         delta           0.001;
[11]     }
[11]     hierarchicalCoeffs
[11]     {
[11]         n               ( 3 2 1 );
[11]         delta           0.001;
[11]         order           xyz;
[11]     }
[11]     manualCoeffs
[11]     {
[11]         dataFile        "cellDecomposition";
[11]     }
[11] }
[11] 
[11] Selecting decompositionMethod scotch
[12]  Foam::decompositionMethod::New 
[12] {
[12]     numberOfSubdomains 448;
[12]     method          scotch;
[12]     simpleCoeffs
[12]     {
[12]         n               ( 4 1 1 );
[12]         delta           0.001;
[12]     }
[12]     hierarchicalCoeffs
[12]     {
[12]         n               ( 3 2 1 );
[12]         delta           0.001;
[12]         order           xyz;
[12]     }
[12]     manualCoeffs
[12]     {
[12]         dataFile        "cellDecomposition";
[12]     }
[12] }
[12] 
[12] Selecting decompositionMethod scotch
[13]  Foam::decompositionMethod::New 
[13] {
[13]     numberOfSubdomains 448;
[13]     method          scotch;
[13]     simpleCoeffs
[13]     {
[13]         n               ( 4 1 1 );
[13]         delta           0.001;
[13]     }
[13]     hierarchicalCoeffs
[13]     {
[13]         n               ( 3 2 1 );
[13]         delta           0.001;
[13]         order           xyz;
[13]     }
[13]     manualCoeffs
[13]     {
[13]         dataFile        "cellDecomposition";
[13]     }
[13] }
[13] 
[13] Selecting decompositionMethod scotch
[14]  Foam::decompositionMethod::New 
[14] {
[14]     numberOfSubdomains 448;
[14]     method          scotch;
[14]     simpleCoeffs
[14]     {
[14]         n               ( 4 1 1 );
[14]         delta           0.001;
[14]     }
[14]     hierarchicalCoeffs
[14]     {
[14]         n               ( 3 2 1 );
[14]         delta           0.001;
[14]         order           xyz;
[14]     }
[14]     manualCoeffs
[14]     {
[14]         dataFile        "cellDecomposition";
[14]     }
[14] }
[14] 
[14] Selecting decompositionMethod scotch
[15]  Foam::decompositionMethod::New 
[15] {
[15]     numberOfSubdomains 448;
[15]     method          scotch;
[15]     simpleCoeffs
[15]     {
[15]         n               ( 4 1 1 );
[15]         delta           0.001;
[15]     }
[15]     hierarchicalCoeffs
[15]     {
[15]         n               ( 3 2 1 );
[15]         delta           0.001;
[15]         order           xyz;
[15]     }
[15]     manualCoeffs
[15]     {
[15]         dataFile        "cellDecomposition";
[15]     }
[15] }
[15] 
[15] Selecting decompositionMethod scotch
[16]  Foam::decompositionMethod::New 
[16] {
[16]     numberOfSubdomains 448;
[16]     method          scotch;
[16]     simpleCoeffs
[16]     {
[16]         n               ( 4 1 1 );
[16]         delta           0.001;
[16]     }
[16]     hierarchicalCoeffs
[16]     {
[16]         n               ( 3 2 1 );
[16]         delta           0.001;
[16]         order           xyz;
[16]     }
[16]     manualCoeffs
[16]     {
[16]         dataFile        "cellDecomposition";
[16]     }
[16] }
[16] 
[16] Selecting decompositionMethod scotch
[17]  Foam::decompositionMethod::New 
[17] {
[17]     numberOfSubdomains 448;
[17]     method          scotch;
[17]     simpleCoeffs
[17]     {
[17]         n               ( 4 1 1 );
[17]         delta           0.001;
[17]     }
[17]     hierarchicalCoeffs
[17]     {
[17]         n               ( 3 2 1 );
[17]         delta           0.001;
[17]         order           xyz;
[17]     }
[17]     manualCoeffs
[17]     {
[17]         dataFile        "cellDecomposition";
[17]     }
[17] }
[17] 
[17] Selecting decompositionMethod scotch
[18]  Foam::decompositionMethod::New 
[18] {
[18]     numberOfSubdomains 448;
[18]     method          scotch;
[18]     simpleCoeffs
[18]     {
[18]         n               ( 4 1 1 );
[18]         delta           0.001;
[18]     }
[18]     hierarchicalCoeffs
[18]     {
[18]         n               ( 3 2 1 );
[18]         delta           0.001;
[18]         order           xyz;
[18]     }
[18]     manualCoeffs
[18]     {
[18]         dataFile        "cellDecomposition";
[18]     }
[18] }
[18] 
[18] Selecting decompositionMethod scotch
[19]  Foam::decompositionMethod::New 
[19] {
[19]     numberOfSubdomains 448;
[19]     method          scotch;
[19]     simpleCoeffs
[19]     {
[19]         n               ( 4 1 1 );
[19]         delta           0.001;
[19]     }
[19]     hierarchicalCoeffs
[19]     {
[19]         n               ( 3 2 1 );
[19]         delta           0.001;
[19]         order           xyz;
[19]     }
[19]     manualCoeffs
[19]     {
[19]         dataFile        "cellDecomposition";
[19]     }
[19] }
[19] 
[19] Selecting decompositionMethod scotch
[20]  Foam::decompositionMethod::New 
[20] {
[20]     numberOfSubdomains 448;
[20]     method          scotch;
[20]     simpleCoeffs
[20]     {
[20]         n               ( 4 1 1 );
[20]         delta           0.001;
[20]     }
[20]     hierarchicalCoeffs
[20]     {
[20]         n               ( 3 2 1 );
[20]         delta           0.001;
[20]         order           xyz;
[20]     }
[20]     manualCoeffs
[20]     {
[20]         dataFile        "cellDecomposition";
[20]     }
[20] }
[20] 
[20] Selecting decompositionMethod scotch
[21]  Foam::decompositionMethod::New 
[21] {
[21]     numberOfSubdomains 448;
[21]     method          scotch;
[21]     simpleCoeffs
[21]     {
[21]         n               ( 4 1 1 );
[21]         delta           0.001;
[21]     }
[21]     hierarchicalCoeffs
[21]     {
[21]         n               ( 3 2 1 );
[21]         delta           0.001;
[21]         order           xyz;
[21]     }
[21]     manualCoeffs
[21]     {
[21]         dataFile        "cellDecomposition";
[21]     }
[21] }
[21] 
[21] Selecting decompositionMethod scotch
[22]  Foam::decompositionMethod::New 
[22] {
[22]     numberOfSubdomains 448;
[22]     method          scotch;
[22]     simpleCoeffs
[22]     {
[22]         n               ( 4 1 1 );
[22]         delta           0.001;
[22]     }
[22]     hierarchicalCoeffs
[22]     {
[22]         n               ( 3 2 1 );
[22]         delta           0.001;
[22]         order           xyz;
[22]     }
[22]     manualCoeffs
[22]     {
[22]         dataFile        "cellDecomposition";
[22]     }
[22] }
[22] 
[22] Selecting decompositionMethod scotch
[23]  Foam::decompositionMethod::New 
[23] {
[23]     numberOfSubdomains 448;
[23]     method          scotch;
[23]     simpleCoeffs
[23]     {
[23]         n               ( 4 1 1 );
[23]         delta           0.001;
[23]     }
[23]     hierarchicalCoeffs
[23]     {
[23]         n               ( 3 2 1 );
[23]         delta           0.001;
[23]         order           xyz;
[23]     }
[23]     manualCoeffs
[23]     {
[23]         dataFile        "cellDecomposition";
[23]     }
[23] }
[23] 
[23] Selecting decompositionMethod scotch
[24]  Foam::decompositionMethod::New 
[24] {
[24]     numberOfSubdomains 448;
[24]     method          scotch;
[24]     simpleCoeffs
[24]     {
[24]         n               ( 4 1 1 );
[24]         delta           0.001;
[24]     }
[24]     hierarchicalCoeffs
[24]     {
[24]         n               ( 3 2 1 );
[24]         delta           0.001;
[24]         order           xyz;
[24]     }
[24]     manualCoeffs
[24]     {
[24]         dataFile        "cellDecomposition";
[24]     }
[24] }
[24] 
[24] Selecting decompositionMethod scotch
[25]  Foam::decompositionMethod::New 
[25] {
[25]     numberOfSubdomains 448;
[25]     method          scotch;
[25]     simpleCoeffs
[25]     {
[25]         n               ( 4 1 1 );
[25]         delta           0.001;
[25]     }
[25]     hierarchicalCoeffs
[25]     {
[25]         n               ( 3 2 1 );
[25]         delta           0.001;
[25]         order           xyz;
[25]     }
[25]     manualCoeffs
[25]     {
[25]         dataFile        "cellDecomposition";
[25]     }
[25] }
[25] 
[25] Selecting decompositionMethod scotch
[26]  Foam::decompositionMethod::New 
[26] {
[26]     numberOfSubdomains 448;
[26]     method          scotch;
[26]     simpleCoeffs
[26]     {
[26]         n               ( 4 1 1 );
[26]         delta           0.001;
[26]     }
[26]     hierarchicalCoeffs
[26]     {
[26]         n               ( 3 2 1 );
[26]         delta           0.001;
[26]         order           xyz;
[26]     }
[26]     manualCoeffs
[26]     {
[26]         dataFile        "cellDecomposition";
[26]     }
[26] }
[26] 
[26] Selecting decompositionMethod scotch
[27]  Foam::decompositionMethod::New 
[27] {
[27]     numberOfSubdomains 448;
[27]     method          scotch;
[27]     simpleCoeffs
[27]     {
[27]         n               ( 4 1 1 );
[27]         delta           0.001;
[27]     }
[27]     hierarchicalCoeffs
[27]     {
[27]         n               ( 3 2 1 );
[27]         delta           0.001;
[27]         order           xyz;
[27]     }
[27]     manualCoeffs
[27]     {
[27]         dataFile        "cellDecomposition";
[27]     }
[27] }
[27] 
[27] Selecting decompositionMethod scotch
[28]  Foam::decompositionMethod::New 
[28] {
[28]     numberOfSubdomains 448;
[28]     method          scotch;
[28]     simpleCoeffs
[28]     {
[28]         n               ( 4 1 1 );
[28]         delta           0.001;
[28]     }
[28]     hierarchicalCoeffs
[28]     {
[28]         n               ( 3 2 1 );
[28]         delta           0.001;
[28]         order           xyz;
[28]     }
[28]     manualCoeffs
[28]     {
[28]         dataFile        "cellDecomposition";
[28]     }
[28] }
[28] 
[28] Selecting decompositionMethod scotch
[29]  Foam::decompositionMethod::New 
[29] {
[29]     numberOfSubdomains 448;
[29]     method          scotch;
[29]     simpleCoeffs
[29]     {
[29]         n               ( 4 1 1 );
[29]         delta           0.001;
[29]     }
[29]     hierarchicalCoeffs
[29]     {
[29]         n               ( 3 2 1 );
[29]         delta           0.001;
[29]         order           xyz;
[29]     }
[29]     manualCoeffs
[29]     {
[29]         dataFile        "cellDecomposition";
[29]     }
[29] }
[29] 
[29] Selecting decompositionMethod scotch
[30]  Foam::decompositionMethod::New 
[30] {
[30]     numberOfSubdomains 448;
[30]     method          scotch;
[30]     simpleCoeffs
[30]     {
[30]         n               ( 4 1 1 );
[30]         delta           0.001;
[30]     }
[30]     hierarchicalCoeffs
[30]     {
[30]         n               ( 3 2 1 );
[30]         delta           0.001;
[30]         order           xyz;
[30]     }
[30]     manualCoeffs
[30]     {
[30]         dataFile        "cellDecomposition";
[30]     }
[30] }
[30] 
[30] Selecting decompositionMethod scotch
[31]  Foam::decompositionMethod::New 
[31] {
[31]     numberOfSubdomains 448;
[31]     method          scotch;
[31]     simpleCoeffs
[31]     {
[31]         n               ( 4 1 1 );
[31]         delta           0.001;
[31]     }
[31]     hierarchicalCoeffs
[31]     {
[31]         n               ( 3 2 1 );
[31]         delta           0.001;
[31]         order           xyz;
[31]     }
[31]     manualCoeffs
[31]     {
[31]         dataFile        "cellDecomposition";
[31]     }
[31] }
[31] 
[31] Selecting decompositionMethod scotch
[32]  Foam::decompositionMethod::New 
[32] {
[32]     numberOfSubdomains 448;
[32]     method          scotch;
[32]     simpleCoeffs
[32]     {
[32]         n               ( 4 1 1 );
[32]         delta           0.001;
[32]     }
[32]     hierarchicalCoeffs
[32]     {
[32]         n               ( 3 2 1 );
[32]         delta           0.001;
[32]         order           xyz;
[32]     }
[32]     manualCoeffs
[32]     {
[32]         dataFile        "cellDecomposition";
[32]     }
[32] }
[32] 
[32] Selecting decompositionMethod scotch
[33]  Foam::decompositionMethod::New 
[33] {
[33]     numberOfSubdomains 448;
[33]     method          scotch;
[33]     simpleCoeffs
[33]     {
[33]         n               ( 4 1 1 );
[33]         delta           0.001;
[33]     }
[33]     hierarchicalCoeffs
[33]     {
[33]         n               ( 3 2 1 );
[33]         delta           0.001;
[33]         order           xyz;
[33]     }
[33]     manualCoeffs
[33]     {
[33]         dataFile        "cellDecomposition";
[33]     }
[33] }
[33] 
[33] Selecting decompositionMethod scotch
[34]  Foam::decompositionMethod::New 
[34] {
[34]     numberOfSubdomains 448;
[34]     method          scotch;
[34]     simpleCoeffs
[34]     {
[34]         n               ( 4 1 1 );
[34]         delta           0.001;
[34]     }
[34]     hierarchicalCoeffs
[34]     {
[34]         n               ( 3 2 1 );
[34]         delta           0.001;
[34]         order           xyz;
[34]     }
[34]     manualCoeffs
[34]     {
[34]         dataFile        "cellDecomposition";
[34]     }
[34] }
[34] 
[34] Selecting decompositionMethod scotch
[35]  Foam::decompositionMethod::New 
[35] {
[35]     numberOfSubdomains 448;
[35]     method          scotch;
[35]     simpleCoeffs
[35]     {
[35]         n               ( 4 1 1 );
[35]         delta           0.001;
[35]     }
[35]     hierarchicalCoeffs
[35]     {
[35]         n               ( 3 2 1 );
[35]         delta           0.001;
[35]         order           xyz;
[35]     }
[35]     manualCoeffs
[35]     {
[35]         dataFile        "cellDecomposition";
[35]     }
[35] }
[35] 
[35] Selecting decompositionMethod scotch
[36]  Foam::decompositionMethod::New 
[36] {
[36]     numberOfSubdomains 448;
[36]     method          scotch;
[36]     simpleCoeffs
[36]     {
[36]         n               ( 4 1 1 );
[36]         delta           0.001;
[36]     }
[36]     hierarchicalCoeffs
[36]     {
[36]         n               ( 3 2 1 );
[36]         delta           0.001;
[36]         order           xyz;
[36]     }
[36]     manualCoeffs
[36]     {
[36]         dataFile        "cellDecomposition";
[36]     }
[36] }
[36] 
[36] Selecting decompositionMethod scotch
[37]  Foam::decompositionMethod::New 
[37] {
[37]     numberOfSubdomains 448;
[37]     method          scotch;
[37]     simpleCoeffs
[37]     {
[37]         n               ( 4 1 1 );
[37]         delta           0.001;
[37]     }
[37]     hierarchicalCoeffs
[37]     {
[37]         n               ( 3 2 1 );
[37]         delta           0.001;
[37]         order           xyz;
[37]     }
[37]     manualCoeffs
[37]     {
[37]         dataFile        "cellDecomposition";
[37]     }
[37] }
[37] 
[37] Selecting decompositionMethod scotch
[38]  Foam::decompositionMethod::New 
[38] {
[38]     numberOfSubdomains 448;
[38]     method          scotch;
[38]     simpleCoeffs
[38]     {
[38]         n               ( 4 1 1 );
[38]         delta           0.001;
[38]     }
[38]     hierarchicalCoeffs
[38]     {
[38]         n               ( 3 2 1 );
[38]         delta           0.001;
[38]         order           xyz;
[38]     }
[38]     manualCoeffs
[38]     {
[38]         dataFile        "cellDecomposition";
[38]     }
[38] }
[38] 
[38] Selecting decompositionMethod scotch
[39]  Foam::decompositionMethod::New 
[39] {
[39]     numberOfSubdomains 448;
[39]     method          scotch;
[39]     simpleCoeffs
[39]     {
[39]         n               ( 4 1 1 );
[39]         delta           0.001;
[39]     }
[39]     hierarchicalCoeffs
[39]     {
[39]         n               ( 3 2 1 );
[39]         delta           0.001;
[39]         order           xyz;
[39]     }
[39]     manualCoeffs
[39]     {
[39]         dataFile        "cellDecomposition";
[39]     }
[39] }
[39] 
[39] Selecting decompositionMethod scotch
[40]  Foam::decompositionMethod::New 
[40] {
[40]     numberOfSubdomains 448;
[40]     method          scotch;
[40]     simpleCoeffs
[40]     {
[40]         n               ( 4 1 1 );
[40]         delta           0.001;
[40]     }
[40]     hierarchicalCoeffs
[40]     {
[40]         n               ( 3 2 1 );
[40]         delta           0.001;
[40]         order           xyz;
[40]     }
[40]     manualCoeffs
[40]     {
[40]         dataFile        "cellDecomposition";
[40]     }
[40] }
[40] 
[40] Selecting decompositionMethod scotch
[41]  Foam::decompositionMethod::New 
[41] {
[41]     numberOfSubdomains 448;
[41]     method          scotch;
[41]     simpleCoeffs
[41]     {
[41]         n               ( 4 1 1 );
[41]         delta           0.001;
[41]     }
[41]     hierarchicalCoeffs
[41]     {
[41]         n               ( 3 2 1 );
[41]         delta           0.001;
[41]         order           xyz;
[41]     }
[41]     manualCoeffs
[41]     {
[41]         dataFile        "cellDecomposition";
[41]     }
[41] }
[41] 
[41] Selecting decompositionMethod scotch
[42]  Foam::decompositionMethod::New 
[42] {
[42]     numberOfSubdomains 448;
[42]     method          scotch;
[42]     simpleCoeffs
[42]     {
[42]         n               ( 4 1 1 );
[42]         delta           0.001;
[42]     }
[42]     hierarchicalCoeffs
[42]     {
[42]         n               ( 3 2 1 );
[42]         delta           0.001;
[42]         order           xyz;
[42]     }
[42]     manualCoeffs
[42]     {
[42]         dataFile        "cellDecomposition";
[42]     }
[42] }
[42] 
[42] Selecting decompositionMethod scotch
[43]  Foam::decompositionMethod::New 
[43] {
[43]     numberOfSubdomains 448;
[43]     method          scotch;
[43]     simpleCoeffs
[43]     {
[43]         n               ( 4 1 1 );
[43]         delta           0.001;
[43]     }
[43]     hierarchicalCoeffs
[43]     {
[43]         n               ( 3 2 1 );
[43]         delta           0.001;
[43]         order           xyz;
[43]     }
[43]     manualCoeffs
[43]     {
[43]         dataFile        "cellDecomposition";
[43]     }
[43] }
[43] 
[43] Selecting decompositionMethod scotch
[44]  Foam::decompositionMethod::New 
[44] {
[44]     numberOfSubdomains 448;
[44]     method          scotch;
[44]     simpleCoeffs
[44]     {
[44]         n               ( 4 1 1 );
[44]         delta           0.001;
[44]     }
[44]     hierarchicalCoeffs
[44]     {
[44]         n               ( 3 2 1 );
[44]         delta           0.001;
[44]         order           xyz;
[44]     }
[44]     manualCoeffs
[44]     {
[44]         dataFile        "cellDecomposition";
[44]     }
[44] }
[44] 
[44] Selecting decompositionMethod scotch
[45]  Foam::decompositionMethod::New 
[45] {
[45]     numberOfSubdomains 448;
[45]     method          scotch;
[45]     simpleCoeffs
[45]     {
[45]         n               ( 4 1 1 );
[45]         delta           0.001;
[45]     }
[45]     hierarchicalCoeffs
[45]     {
[45]         n               ( 3 2 1 );
[45]         delta           0.001;
[45]         order           xyz;
[45]     }
[45]     manualCoeffs
[45]     {
[45]         dataFile        "cellDecomposition";
[45]     }
[45] }
[45] 
[45] Selecting decompositionMethod scotch
[46]  Foam::decompositionMethod::New 
[46] {
[46]     numberOfSubdomains 448;
[46]     method          scotch;
[46]     simpleCoeffs
[46]     {
[46]         n               ( 4 1 1 );
[46]         delta           0.001;
[46]     }
[46]     hierarchicalCoeffs
[46]     {
[46]         n               ( 3 2 1 );
[46]         delta           0.001;
[46]         order           xyz;
[46]     }
[46]     manualCoeffs
[46]     {
[46]         dataFile        "cellDecomposition";
[46]     }
[46] }
[46] 
[46] Selecting decompositionMethod scotch
[47]  Foam::decompositionMethod::New 
[47] {
[47]     numberOfSubdomains 448;
[47]     method          scotch;
[47]     simpleCoeffs
[47]     {
[47]         n               ( 4 1 1 );
[47]         delta           0.001;
[47]     }
[47]     hierarchicalCoeffs
[47]     {
[47]         n               ( 3 2 1 );
[47]         delta           0.001;
[47]         order           xyz;
[47]     }
[47]     manualCoeffs
[47]     {
[47]         dataFile        "cellDecomposition";
[47]     }
[47] }
[47] 
[47] Selecting decompositionMethod scotch
[48]  Foam::decompositionMethod::New 
[48] {
[48]     numberOfSubdomains 448;
[48]     method          scotch;
[48]     simpleCoeffs
[48]     {
[48]         n               ( 4 1 1 );
[48]         delta           0.001;
[48]     }
[48]     hierarchicalCoeffs
[48]     {
[48]         n               ( 3 2 1 );
[48]         delta           0.001;
[48]         order           xyz;
[48]     }
[48]     manualCoeffs
[48]     {
[48]         dataFile        "cellDecomposition";
[48]     }
[48] }
[48] 
[48] Selecting decompositionMethod scotch
[49]  Foam::decompositionMethod::New 
[49] {
[49]     numberOfSubdomains 448;
[49]     method          scotch;
[49]     simpleCoeffs
[49]     {
[49]         n               ( 4 1 1 );
[49]         delta           0.001;
[49]     }
[49]     hierarchicalCoeffs
[49]     {
[49]         n               ( 3 2 1 );
[49]         delta           0.001;
[49]         order           xyz;
[49]     }
[49]     manualCoeffs
[49]     {
[49]         dataFile        "cellDecomposition";
[49]     }
[49] }
[49] 
[49] Selecting decompositionMethod scotch
[50]  Foam::decompositionMethod::New 
[50] {
[50]     numberOfSubdomains 448;
[50]     method          scotch;
[50]     simpleCoeffs
[50]     {
[50]         n               ( 4 1 1 );
[50]         delta           0.001;
[50]     }
[50]     hierarchicalCoeffs
[50]     {
[50]         n               ( 3 2 1 );
[50]         delta           0.001;
[50]         order           xyz;
[50]     }
[50]     manualCoeffs
[50]     {
[50]         dataFile        "cellDecomposition";
[50]     }
[50] }
[50] 
[50] Selecting decompositionMethod scotch
[51]  Foam::decompositionMethod::New 
[51] {
[51]     numberOfSubdomains 448;
[51]     method          scotch;
[51]     simpleCoeffs
[51]     {
[51]         n               ( 4 1 1 );
[51]         delta           0.001;
[51]     }
[51]     hierarchicalCoeffs
[51]     {
[51]         n               ( 3 2 1 );
[51]         delta           0.001;
[51]         order           xyz;
[51]     }
[51]     manualCoeffs
[51]     {
[51]         dataFile        "cellDecomposition";
[51]     }
[51] }
[51] 
[51] Selecting decompositionMethod scotch
[52]  Foam::decompositionMethod::New 
[52] {
[52]     numberOfSubdomains 448;
[52]     method          scotch;
[52]     simpleCoeffs
[52]     {
[52]         n               ( 4 1 1 );
[52]         delta           0.001;
[52]     }
[52]     hierarchicalCoeffs
[52]     {
[52]         n               ( 3 2 1 );
[52]         delta           0.001;
[52]         order           xyz;
[52]     }
[52]     manualCoeffs
[52]     {
[52]         dataFile        "cellDecomposition";
[52]     }
[52] }
[52] 
[52] Selecting decompositionMethod scotch
[53]  Foam::decompositionMethod::New 
[53] {
[53]     numberOfSubdomains 448;
[53]     method          scotch;
[53]     simpleCoeffs
[53]     {
[53]         n               ( 4 1 1 );
[53]         delta           0.001;
[53]     }
[53]     hierarchicalCoeffs
[53]     {
[53]         n               ( 3 2 1 );
[53]         delta           0.001;
[53]         order           xyz;
[53]     }
[53]     manualCoeffs
[53]     {
[53]         dataFile        "cellDecomposition";
[53]     }
[53] }
[53] 
[53] Selecting decompositionMethod scotch
[54]  Foam::decompositionMethod::New 
[54] {
[54]     numberOfSubdomains 448;
[54]     method          scotch;
[54]     simpleCoeffs
[54]     {
[54]         n               ( 4 1 1 );
[54]         delta           0.001;
[54]     }
[54]     hierarchicalCoeffs
[54]     {
[54]         n               ( 3 2 1 );
[54]         delta           0.001;
[54]         order           xyz;
[54]     }
[54]     manualCoeffs
[54]     {
[54]         dataFile        "cellDecomposition";
[54]     }
[54] }
[54] 
[54] Selecting decompositionMethod scotch
[55]  Foam::decompositionMethod::New 
[55] {
[55]     numberOfSubdomains 448;
[55]     method          scotch;
[55]     simpleCoeffs
[55]     {
[55]         n               ( 4 1 1 );
[55]         delta           0.001;
[55]     }
[55]     hierarchicalCoeffs
[55]     {
[55]         n               ( 3 2 1 );
[55]         delta           0.001;
[55]         order           xyz;
[55]     }
[55]     manualCoeffs
[55]     {
[55]         dataFile        "cellDecomposition";
[55]     }
[55] }
[55] 
[55] Selecting decompositionMethod scotch
66    wall                motorBike_rear-mud-guard-shadow%84
67    wall                motorBike_rear-susp-spring-damp-shadow%85
68    wall                motorBike_radiator-shadow%86  
69    wall                motorBike_rear-shock-link-shadow%87
70    wall                motorBike_rear-brake-fluid-pot-bracket-shadow%88
71    wall                motorBike_rr-wh-chain-hub-shadow%89

Added patches in = 0.06 s

[0]  Foam::decompositionMethod::New 
[0] {
[0]     numberOfSubdomains 448;
[0]     method          scotch;
[0]     simpleCoeffs
[0]     {
[0]         n               ( 4 1 1 );
[0]         delta           0.001;
[0]     }
[0]     hierarchicalCoeffs
[0]     {
[0]         n               ( 3 2 1 );
[0]         delta           0.001;
[0]         order           xyz;
[0]     }
[0]     manualCoeffs
[0]     {
[0]         dataFile        "cellDecomposition";
[0]     }
[0] }
[0] 
[0] Selecting decompositionMethod scotch
Layer thickness specified as final layer and expansion ratio.

Refinement phase
----------------

[392]  Foam::decompositionMethod::New 
[392] {
[392]     numberOfSubdomains 448;
[392]     method          scotch;
[392]     simpleCoeffs
[392]     {
[392]         n               ( 4 1 1 );
[392]         delta           0.001;
[392]     }
[392]     hierarchicalCoeffs
[392]     {
[392]         n               ( 3 2 1 );
[392]         delta           0.001;
[392]         order           xyz;
[392]     }
[392]     manualCoeffs
[392]     {
[392]         dataFile        "cellDecomposition";
[392]     }
[392] }
[392] 
[392] Selecting decompositionMethod scotch
[224]  Foam::decompositionMethod::New 
[224] {
[224]     numberOfSubdomains 448;
[224]     method          scotch;
[224]     simpleCoeffs
[224]     {
[224]         n               ( 4 1 1 );
[224]         delta           0.001;
[224]     }
[224]     hierarchicalCoeffs
[224]     {
[224]         n               ( 3 2 1 );
[224]         delta           0.001;
[224]         order           xyz;
[224]     }
[224]     manualCoeffs
[224]     {
[224]         dataFile        "cellDecomposition";
[224]     }
[224] }
[224] 
[224] Selecting decompositionMethod scotch
[168]  Foam::decompositionMethod::New 
[168] {
[168]     numberOfSubdomains 448;
[168]     method          scotch;
[168]     simpleCoeffs
[168]     {
[168]         n               ( 4 1 1 );
[168]         delta           0.001;
[168]     }
[168]     hierarchicalCoeffs
[168]     {
[168]         n               ( 3 2 1 );
[168]         delta           0.001;
[168]         order           xyz;
[168]     }
[168]     manualCoeffs
[168]     {
[168]         dataFile        "cellDecomposition";
[168]     }
[168] }
[168] 
[168] Selecting decompositionMethod scotch
[280]  Foam::decompositionMethod::New 
[280] {
[280]     numberOfSubdomains 448;
[280]     method          scotch;
[280]     simpleCoeffs
[280]     {
[280]         n               ( 4 1 1 );
[280]         delta           0.001;
[280]     }
[280]     hierarchicalCoeffs
[280]     {
[280]         n               ( 3 2 1 );
[280]         delta           0.001;
[280]         order           xyz;
[280]     }
[280]     manualCoeffs
[280]     {
[280]         dataFile        "cellDecomposition";
[280]     }
[280] }
[280] 
[280] Selecting decompositionMethod scotch
[112]  Foam::decompositionMethod::New 
[112] {
[112]     numberOfSubdomains 448;
[112]     method          scotch;
[112]     simpleCoeffs
[112]     {
[112]         n               ( 4 1 1 );
[112]         delta           0.001;
[112]     }
[112]     hierarchicalCoeffs
[112]     {
[112]         n               ( 3 2 1 );
[112]         delta           0.001;
[112]         order           xyz;
[112]     }
[112]     manualCoeffs
[112]     {
[112]         dataFile        "cellDecomposition";
[112]     }
[112] }
[112] 
[112] Selecting decompositionMethod scotch
[336]  Foam::decompositionMethod::New 
[336] {
[336]     numberOfSubdomains 448;
[336]     method          scotch;
[336]     simpleCoeffs
[336]     {
[336]         n               ( 4 1 1 );
[336]         delta           0.001;
[336]     }
[336]     hierarchicalCoeffs
[336]     {
[336]         n               ( 3 2 1 );
[336]         delta           0.001;
[336]         order           xyz;
[336]     }
[336]     manualCoeffs
[336]     {
[336]         dataFile        "cellDecomposition";
[336]     }
[336] }
[336] 
[336] Selecting decompositionMethod scotch
[56]  Foam::decompositionMethod::New 
[56] {
[56]     numberOfSubdomains 448;
[56]     method          scotch;
[56]     simpleCoeffs
[56]     {
[56]         n               ( 4 1 1 );
[56]         delta           0.001;
[56]     }
[56]     hierarchicalCoeffs
[56]     {
[56]         n               ( 3 2 1 );
[56]         delta           0.001;
[56]         order           xyz;
[56]     }
[56]     manualCoeffs
[56]     {
[56]         dataFile        "cellDecomposition";
[56]     }
[56] }
[56] 
[56] Selecting decompositionMethod scotch
[393]  Foam::decompositionMethod::New 
[393] {
[393]     numberOfSubdomains 448;
[393]     method          scotch;
[393]     simpleCoeffs
[393]     {
[393]         n               ( 4 1 1 );
[393]         delta           0.001;
[393]     }
[393]     hierarchicalCoeffs
[393]     {
[393]         n               ( 3 2 1 );
[393]         delta           0.001;
[393]         order           xyz;
[393]     }
[393]     manualCoeffs
[393]     {
[393]         dataFile        "cellDecomposition";
[393]     }
[393] }
[393] 
[393] Selecting decompositionMethod scotch
[225]  Foam::decompositionMethod::New 
[225] {
[225]     numberOfSubdomains 448;
[225]     method          scotch;
[225]     simpleCoeffs
[225]     {
[225]         n               ( 4 1 1 );
[225]         delta           0.001;
[225]     }
[225]     hierarchicalCoeffs
[225]     {
[225]         n               ( 3 2 1 );
[225]         delta           0.001;
[225]         order           xyz;
[225]     }
[225]     manualCoeffs
[225]     {
[225]         dataFile        "cellDecomposition";
[225]     }
[225] }
[225] 
[225] Selecting decompositionMethod scotch
[169]  Foam::decompositionMethod::New 
[169] {
[169]     numberOfSubdomains 448;
[169]     method          scotch;
[169]     simpleCoeffs
[169]     {
[169]         n               ( 4 1 1 );
[169]         delta           0.001;
[169]     }
[169]     hierarchicalCoeffs
[169]     {
[169]         n               ( 3 2 1 );
[169]         delta           0.001;
[169]         order           xyz;
[169]     }
[169]     manualCoeffs
[169]     {
[169]         dataFile        "cellDecomposition";
[169]     }
[169] }
[169] 
[169] Selecting decompositionMethod scotch
[281]  Foam::decompositionMethod::New 
[281] {
[281]     numberOfSubdomains 448;
[281]     method          scotch;
[281]     simpleCoeffs
[281]     {
[281]         n               ( 4 1 1 );
[281]         delta           0.001;
[281]     }
[281]     hierarchicalCoeffs
[281]     {
[281]         n               ( 3 2 1 );
[281]         delta           0.001;
[281]         order           xyz;
[281]     }
[281]     manualCoeffs
[281]     {
[281]         dataFile        "cellDecomposition";
[281]     }
[281] }
[281] 
[281] Selecting decompositionMethod scotch
[113]  Foam::decompositionMethod::New 
[113] {
[113]     numberOfSubdomains 448;
[113]     method          scotch;
[113]     simpleCoeffs
[113]     {
[113]         n               ( 4 1 1 );
[113]         delta           0.001;
[113]     }
[113]     hierarchicalCoeffs
[113]     {
[113]         n               ( 3 2 1 );
[113]         delta           0.001;
[113]         order           xyz;
[113]     }
[113]     manualCoeffs
[113]     {
[113]         dataFile        "cellDecomposition";
[113]     }
[113] }
[113] 
[113] Selecting decompositionMethod scotch
[337]  Foam::decompositionMethod::New 
[337] {
[337]     numberOfSubdomains 448;
[337]     method          scotch;
[337]     simpleCoeffs
[337]     {
[337]         n               ( 4 1 1 );
[337]         delta           0.001;
[337]     }
[337]     hierarchicalCoeffs
[337]     {
[337]         n               ( 3 2 1 );
[337]         delta           0.001;
[337]         order           xyz;
[337]     }
[337]     manualCoeffs
[337]     {
[337]         dataFile        "cellDecomposition";
[337]     }
[337] }
[337] 
[337] Selecting decompositionMethod scotch
[57]  Foam::decompositionMethod::New 
[57] {
[57]     numberOfSubdomains 448;
[57]     method          scotch;
[57]     simpleCoeffs
[57]     {
[57]         n               ( 4 1 1 );
[57]         delta           0.001;
[57]     }
[57]     hierarchicalCoeffs
[57]     {
[57]         n               ( 3 2 1 );
[57]         delta           0.001;
[57]         order           xyz;
[57]     }
[57]     manualCoeffs
[57]     {
[57]         dataFile        "cellDecomposition";
[57]     }
[57] }
[57] 
[57] Selecting decompositionMethod scotch
[394]  Foam::decompositionMethod::New 
[394] {
[394]     numberOfSubdomains 448;
[394]     method          scotch;
[394]     simpleCoeffs
[394]     {
[394]         n               ( 4 1 1 );
[394]         delta           0.001;
[394]     }
[394]     hierarchicalCoeffs
[394]     {
[394]         n               ( 3 2 1 );
[394]         delta           0.001;
[394]         order           xyz;
[394]     }
[394]     manualCoeffs
[394]     {
[394]         dataFile        "cellDecomposition";
[394]     }
[394] }
[394] 
[394] Selecting decompositionMethod scotch
[226]  Foam::decompositionMethod::New 
[226] {
[226]     numberOfSubdomains 448;
[226]     method          scotch;
[226]     simpleCoeffs
[226]     {
[226]         n               ( 4 1 1 );
[226]         delta           0.001;
[226]     }
[226]     hierarchicalCoeffs
[226]     {
[226]         n               ( 3 2 1 );
[226]         delta           0.001;
[226]         order           xyz;
[226]     }
[226]     manualCoeffs
[226]     {
[226]         dataFile        "cellDecomposition";
[226]     }
[226] }
[226] 
[226] Selecting decompositionMethod scotch
[170]  Foam::decompositionMethod::New 
[170] {
[170]     numberOfSubdomains 448;
[170]     method          scotch;
[170]     simpleCoeffs
[170]     {
[170]         n               ( 4 1 1 );
[170]         delta           0.001;
[170]     }
[170]     hierarchicalCoeffs
[170]     {
[170]         n               ( 3 2 1 );
[170]         delta           0.001;
[170]         order           xyz;
[170]     }
[170]     manualCoeffs
[170]     {
[170]         dataFile        "cellDecomposition";
[170]     }
[170] }
[170] 
[170] Selecting decompositionMethod scotch
[282]  Foam::decompositionMethod::New 
[282] {
[282]     numberOfSubdomains 448;
[282]     method          scotch;
[282]     simpleCoeffs
[282]     {
[282]         n               ( 4 1 1 );
[282]         delta           0.001;
[282]     }
[282]     hierarchicalCoeffs
[282]     {
[282]         n               ( 3 2 1 );
[282]         delta           0.001;
[282]         order           xyz;
[282]     }
[282]     manualCoeffs
[282]     {
[282]         dataFile        "cellDecomposition";
[282]     }
[282] }
[282] 
[282] Selecting decompositionMethod scotch
[114]  Foam::decompositionMethod::New 
[114] {
[114]     numberOfSubdomains 448;
[114]     method          scotch;
[114]     simpleCoeffs
[114]     {
[114]         n               ( 4 1 1 );
[114]         delta           0.001;
[114]     }
[114]     hierarchicalCoeffs
[114]     {
[114]         n               ( 3 2 1 );
[114]         delta           0.001;
[114]         order           xyz;
[114]     }
[114]     manualCoeffs
[114]     {
[114]         dataFile        "cellDecomposition";
[114]     }
[114] }
[114] 
[114] Selecting decompositionMethod scotch
[338]  Foam::decompositionMethod::New 
[338] {
[338]     numberOfSubdomains 448;
[338]     method          scotch;
[338]     simpleCoeffs
[338]     {
[338]         n               ( 4 1 1 );
[338]         delta           0.001;
[338]     }
[338]     hierarchicalCoeffs
[338]     {
[338]         n               ( 3 2 1 );
[338]         delta           0.001;
[338]         order           xyz;
[338]     }
[338]     manualCoeffs
[338]     {
[338]         dataFile        "cellDecomposition";
[338]     }
[338] }
[338] 
[338] Selecting decompositionMethod scotch
[58]  Foam::decompositionMethod::New 
[58] {
[58]     numberOfSubdomains 448;
[58]     method          scotch;
[58]     simpleCoeffs
[58]     {
[58]         n               ( 4 1 1 );
[58]         delta           0.001;
[58]     }
[58]     hierarchicalCoeffs
[58]     {
[58]         n               ( 3 2 1 );
[58]         delta           0.001;
[58]         order           xyz;
[58]     }
[58]     manualCoeffs
[58]     {
[58]         dataFile        "cellDecomposition";
[58]     }
[58] }
[58] 
[58] Selecting decompositionMethod scotch
[395]  Foam::decompositionMethod::New 
[395] {
[395]     numberOfSubdomains 448;
[395]     method          scotch;
[395]     simpleCoeffs
[395]     {
[395]         n               ( 4 1 1 );
[395]         delta           0.001;
[395]     }
[395]     hierarchicalCoeffs
[395]     {
[395]         n               ( 3 2 1 );
[395]         delta           0.001;
[395]         order           xyz;
[395]     }
[395]     manualCoeffs
[395]     {
[395]         dataFile        "cellDecomposition";
[395]     }
[395] }
[395] 
[395] Selecting decompositionMethod scotch
[227]  Foam::decompositionMethod::New 
[227] {
[227]     numberOfSubdomains 448;
[227]     method          scotch;
[227]     simpleCoeffs
[227]     {
[227]         n               ( 4 1 1 );
[227]         delta           0.001;
[227]     }
[227]     hierarchicalCoeffs
[227]     {
[227]         n               ( 3 2 1 );
[227]         delta           0.001;
[227]         order           xyz;
[227]     }
[227]     manualCoeffs
[227]     {
[227]         dataFile        "cellDecomposition";
[227]     }
[227] }
[227] 
[227] Selecting decompositionMethod scotch
[171]  Foam::decompositionMethod::New 
[171] {
[171]     numberOfSubdomains 448;
[171]     method          scotch;
[171]     simpleCoeffs
[171]     {
[171]         n               ( 4 1 1 );
[171]         delta           0.001;
[171]     }
[171]     hierarchicalCoeffs
[171]     {
[171]         n               ( 3 2 1 );
[171]         delta           0.001;
[171]         order           xyz;
[171]     }
[171]     manualCoeffs
[171]     {
[171]         dataFile        "cellDecomposition";
[171]     }
[171] }
[171] 
[171] Selecting decompositionMethod scotch
[283]  Foam::decompositionMethod::New 
[283] {
[283]     numberOfSubdomains 448;
[283]     method          scotch;
[283]     simpleCoeffs
[283]     {
[283]         n               ( 4 1 1 );
[283]         delta           0.001;
[283]     }
[283]     hierarchicalCoeffs
[283]     {
[283]         n               ( 3 2 1 );
[283]         delta           0.001;
[283]         order           xyz;
[283]     }
[283]     manualCoeffs
[283]     {
[283]         dataFile        "cellDecomposition";
[283]     }
[283] }
[283] 
[283] Selecting decompositionMethod scotch
[115]  Foam::decompositionMethod::New 
[115] {
[115]     numberOfSubdomains 448;
[115]     method          scotch;
[115]     simpleCoeffs
[115]     {
[115]         n               ( 4 1 1 );
[115]         delta           0.001;
[115]     }
[115]     hierarchicalCoeffs
[115]     {
[115]         n               ( 3 2 1 );
[115]         delta           0.001;
[115]         order           xyz;
[115]     }
[115]     manualCoeffs
[115]     {
[115]         dataFile        "cellDecomposition";
[115]     }
[115] }
[115] 
[115] Selecting decompositionMethod scotch
[339]  Foam::decompositionMethod::New 
[339] {
[339]     numberOfSubdomains 448;
[339]     method          scotch;
[339]     simpleCoeffs
[339]     {
[339]         n               ( 4 1 1 );
[339]         delta           0.001;
[339]     }
[339]     hierarchicalCoeffs
[339]     {
[339]         n               ( 3 2 1 );
[339]         delta           0.001;
[339]         order           xyz;
[339]     }
[339]     manualCoeffs
[339]     {
[339]         dataFile        "cellDecomposition";
[339]     }
[339] }
[339] 
[339] Selecting decompositionMethod scotch
[59]  Foam::decompositionMethod::New 
[59] {
[59]     numberOfSubdomains 448;
[59]     method          scotch;
[59]     simpleCoeffs
[59]     {
[59]         n               ( 4 1 1 );
[59]         delta           0.001;
[59]     }
[59]     hierarchicalCoeffs
[59]     {
[59]         n               ( 3 2 1 );
[59]         delta           0.001;
[59]         order           xyz;
[59]     }
[59]     manualCoeffs
[59]     {
[59]         dataFile        "cellDecomposition";
[59]     }
[59] }
[59] 
[59] Selecting decompositionMethod scotch
[396]  Foam::decompositionMethod::New 
[396] {
[396]     numberOfSubdomains 448;
[396]     method          scotch;
[396]     simpleCoeffs
[396]     {
[396]         n               ( 4 1 1 );
[396]         delta           0.001;
[396]     }
[396]     hierarchicalCoeffs
[396]     {
[396]         n               ( 3 2 1 );
[396]         delta           0.001;
[396]         order           xyz;
[396]     }
[396]     manualCoeffs
[396]     {
[396]         dataFile        "cellDecomposition";
[396]     }
[396] }
[396] 
[396] Selecting decompositionMethod scotch
[228]  Foam::decompositionMethod::New 
[228] {
[228]     numberOfSubdomains 448;
[228]     method          scotch;
[228]     simpleCoeffs
[228]     {
[228]         n               ( 4 1 1 );
[228]         delta           0.001;
[228]     }
[228]     hierarchicalCoeffs
[228]     {
[228]         n               ( 3 2 1 );
[228]         delta           0.001;
[228]         order           xyz;
[228]     }
[228]     manualCoeffs
[228]     {
[228]         dataFile        "cellDecomposition";
[228]     }
[228] }
[228] 
[228] Selecting decompositionMethod scotch
[172]  Foam::decompositionMethod::New 
[172] {
[172]     numberOfSubdomains 448;
[172]     method          scotch;
[172]     simpleCoeffs
[172]     {
[172]         n               ( 4 1 1 );
[172]         delta           0.001;
[172]     }
[172]     hierarchicalCoeffs
[172]     {
[172]         n               ( 3 2 1 );
[172]         delta           0.001;
[172]         order           xyz;
[172]     }
[172]     manualCoeffs
[172]     {
[172]         dataFile        "cellDecomposition";
[172]     }
[172] }
[172] 
[172] Selecting decompositionMethod scotch
[284]  Foam::decompositionMethod::New 
[284] {
[284]     numberOfSubdomains 448;
[284]     method          scotch;
[284]     simpleCoeffs
[284]     {
[284]         n               ( 4 1 1 );
[284]         delta           0.001;
[284]     }
[284]     hierarchicalCoeffs
[284]     {
[284]         n               ( 3 2 1 );
[284]         delta           0.001;
[284]         order           xyz;
[284]     }
[284]     manualCoeffs
[284]     {
[284]         dataFile        "cellDecomposition";
[284]     }
[284] }
[284] 
[284] Selecting decompositionMethod scotch
[116]  Foam::decompositionMethod::New 
[116] {
[116]     numberOfSubdomains 448;
[116]     method          scotch;
[116]     simpleCoeffs
[116]     {
[116]         n               ( 4 1 1 );
[116]         delta           0.001;
[116]     }
[116]     hierarchicalCoeffs
[116]     {
[116]         n               ( 3 2 1 );
[116]         delta           0.001;
[116]         order           xyz;
[116]     }
[116]     manualCoeffs
[116]     {
[116]         dataFile        "cellDecomposition";
[116]     }
[116] }
[116] 
[116] Selecting decompositionMethod scotch
[340]  Foam::decompositionMethod::New 
[340] {
[340]     numberOfSubdomains 448;
[340]     method          scotch;
[340]     simpleCoeffs
[340]     {
[340]         n               ( 4 1 1 );
[340]         delta           0.001;
[340]     }
[340]     hierarchicalCoeffs
[340]     {
[340]         n               ( 3 2 1 );
[340]         delta           0.001;
[340]         order           xyz;
[340]     }
[340]     manualCoeffs
[340]     {
[340]         dataFile        "cellDecomposition";
[340]     }
[340] }
[340] 
[340] Selecting decompositionMethod scotch
[60]  Foam::decompositionMethod::New 
[60] {
[60]     numberOfSubdomains 448;
[60]     method          scotch;
[60]     simpleCoeffs
[60]     {
[60]         n               ( 4 1 1 );
[60]         delta           0.001;
[60]     }
[60]     hierarchicalCoeffs
[60]     {
[60]         n               ( 3 2 1 );
[60]         delta           0.001;
[60]         order           xyz;
[60]     }
[60]     manualCoeffs
[60]     {
[60]         dataFile        "cellDecomposition";
[60]     }
[60] }
[60] 
[60] Selecting decompositionMethod scotch
[397]  Foam::decompositionMethod::New 
[397] {
[397]     numberOfSubdomains 448;
[397]     method          scotch;
[397]     simpleCoeffs
[397]     {
[397]         n               ( 4 1 1 );
[397]         delta           0.001;
[397]     }
[397]     hierarchicalCoeffs
[397]     {
[397]         n               ( 3 2 1 );
[397]         delta           0.001;
[397]         order           xyz;
[397]     }
[397]     manualCoeffs
[397]     {
[397]         dataFile        "cellDecomposition";
[397]     }
[397] }
[397] 
[397] Selecting decompositionMethod scotch
[229]  Foam::decompositionMethod::New 
[229] {
[229]     numberOfSubdomains 448;
[229]     method          scotch;
[229]     simpleCoeffs
[229]     {
[229]         n               ( 4 1 1 );
[229]         delta           0.001;
[229]     }
[229]     hierarchicalCoeffs
[229]     {
[229]         n               ( 3 2 1 );
[229]         delta           0.001;
[229]         order           xyz;
[229]     }
[229]     manualCoeffs
[229]     {
[229]         dataFile        "cellDecomposition";
[229]     }
[229] }
[229] 
[229] Selecting decompositionMethod scotch
[173]  Foam::decompositionMethod::New 
[173] {
[173]     numberOfSubdomains 448;
[173]     method          scotch;
[173]     simpleCoeffs
[173]     {
[173]         n               ( 4 1 1 );
[173]         delta           0.001;
[173]     }
[173]     hierarchicalCoeffs
[173]     {
[173]         n               ( 3 2 1 );
[173]         delta           0.001;
[173]         order           xyz;
[173]     }
[173]     manualCoeffs
[173]     {
[173]         dataFile        "cellDecomposition";
[173]     }
[173] }
[173] 
[173] Selecting decompositionMethod scotch
[285]  Foam::decompositionMethod::New 
[285] {
[285]     numberOfSubdomains 448;
[285]     method          scotch;
[285]     simpleCoeffs
[285]     {
[285]         n               ( 4 1 1 );
[285]         delta           0.001;
[285]     }
[285]     hierarchicalCoeffs
[285]     {
[285]         n               ( 3 2 1 );
[285]         delta           0.001;
[285]         order           xyz;
[285]     }
[285]     manualCoeffs
[285]     {
[285]         dataFile        "cellDecomposition";
[285]     }
[285] }
[285] 
[285] Selecting decompositionMethod scotch
[117]  Foam::decompositionMethod::New 
[117] {
[117]     numberOfSubdomains 448;
[117]     method          scotch;
[117]     simpleCoeffs
[117]     {
[117]         n               ( 4 1 1 );
[117]         delta           0.001;
[117]     }
[117]     hierarchicalCoeffs
[117]     {
[117]         n               ( 3 2 1 );
[117]         delta           0.001;
[117]         order           xyz;
[117]     }
[117]     manualCoeffs
[117]     {
[117]         dataFile        "cellDecomposition";
[117]     }
[117] }
[117] 
[117] Selecting decompositionMethod scotch
[341]  Foam::decompositionMethod::New 
[341] {
[341]     numberOfSubdomains 448;
[341]     method          scotch;
[341]     simpleCoeffs
[341]     {
[341]         n               ( 4 1 1 );
[341]         delta           0.001;
[341]     }
[341]     hierarchicalCoeffs
[341]     {
[341]         n               ( 3 2 1 );
[341]         delta           0.001;
[341]         order           xyz;
[341]     }
[341]     manualCoeffs
[341]     {
[341]         dataFile        "cellDecomposition";
[341]     }
[341] }
[341] 
[341] Selecting decompositionMethod scotch
[61]  Foam::decompositionMethod::New 
[61] {
[61]     numberOfSubdomains 448;
[61]     method          scotch;
[61]     simpleCoeffs
[61]     {
[61]         n               ( 4 1 1 );
[61]         delta           0.001;
[61]     }
[61]     hierarchicalCoeffs
[61]     {
[61]         n               ( 3 2 1 );
[61]         delta           0.001;
[61]         order           xyz;
[61]     }
[61]     manualCoeffs
[61]     {
[61]         dataFile        "cellDecomposition";
[61]     }
[61] }
[61] 
[61] Selecting decompositionMethod scotch
[398]  Foam::decompositionMethod::New 
[398] {
[398]     numberOfSubdomains 448;
[398]     method          scotch;
[398]     simpleCoeffs
[398]     {
[398]         n               ( 4 1 1 );
[398]         delta           0.001;
[398]     }
[398]     hierarchicalCoeffs
[398]     {
[398]         n               ( 3 2 1 );
[398]         delta           0.001;
[398]         order           xyz;
[398]     }
[398]     manualCoeffs
[398]     {
[398]         dataFile        "cellDecomposition";
[398]     }
[398] }
[398] 
[398] Selecting decompositionMethod scotch
[230]  Foam::decompositionMethod::New 
[230] {
[230]     numberOfSubdomains 448;
[230]     method          scotch;
[230]     simpleCoeffs
[230]     {
[230]         n               ( 4 1 1 );
[230]         delta           0.001;
[230]     }
[230]     hierarchicalCoeffs
[230]     {
[230]         n               ( 3 2 1 );
[230]         delta           0.001;
[230]         order           xyz;
[230]     }
[230]     manualCoeffs
[230]     {
[230]         dataFile        "cellDecomposition";
[230]     }
[230] }
[230] 
[230] Selecting decompositionMethod scotch
[174]  Foam::decompositionMethod::New 
[174] {
[174]     numberOfSubdomains 448;
[174]     method          scotch;
[174]     simpleCoeffs
[174]     {
[174]         n               ( 4 1 1 );
[174]         delta           0.001;
[174]     }
[174]     hierarchicalCoeffs
[174]     {
[174]         n               ( 3 2 1 );
[174]         delta           0.001;
[174]         order           xyz;
[174]     }
[174]     manualCoeffs
[174]     {
[174]         dataFile        "cellDecomposition";
[174]     }
[174] }
[174] 
[174] Selecting decompositionMethod scotch
[286]  Foam::decompositionMethod::New 
[286] {
[286]     numberOfSubdomains 448;
[286]     method          scotch;
[286]     simpleCoeffs
[286]     {
[286]         n               ( 4 1 1 );
[286]         delta           0.001;
[286]     }
[286]     hierarchicalCoeffs
[286]     {
[286]         n               ( 3 2 1 );
[286]         delta           0.001;
[286]         order           xyz;
[286]     }
[286]     manualCoeffs
[286]     {
[286]         dataFile        "cellDecomposition";
[286]     }
[286] }
[286] 
[286] Selecting decompositionMethod scotch
[118]  Foam::decompositionMethod::New 
[118] {
[118]     numberOfSubdomains 448;
[118]     method          scotch;
[118]     simpleCoeffs
[118]     {
[118]         n               ( 4 1 1 );
[118]         delta           0.001;
[118]     }
[118]     hierarchicalCoeffs
[118]     {
[118]         n               ( 3 2 1 );
[118]         delta           0.001;
[118]         order           xyz;
[118]     }
[118]     manualCoeffs
[118]     {
[118]         dataFile        "cellDecomposition";
[118]     }
[118] }
[118] 
[118] Selecting decompositionMethod scotch
[342]  Foam::decompositionMethod::New 
[342] {
[342]     numberOfSubdomains 448;
[342]     method          scotch;
[342]     simpleCoeffs
[342]     {
[342]         n               ( 4 1 1 );
[342]         delta           0.001;
[342]     }
[342]     hierarchicalCoeffs
[342]     {
[342]         n               ( 3 2 1 );
[342]         delta           0.001;
[342]         order           xyz;
[342]     }
[342]     manualCoeffs
[342]     {
[342]         dataFile        "cellDecomposition";
[342]     }
[342] }
[342] 
[342] Selecting decompositionMethod scotch
[62]  Foam::decompositionMethod::New 
[62] {
[62]     numberOfSubdomains 448;
[62]     method          scotch;
[62]     simpleCoeffs
[62]     {
[62]         n               ( 4 1 1 );
[62]         delta           0.001;
[62]     }
[62]     hierarchicalCoeffs
[62]     {
[62]         n               ( 3 2 1 );
[62]         delta           0.001;
[62]         order           xyz;
[62]     }
[62]     manualCoeffs
[62]     {
[62]         dataFile        "cellDecomposition";
[62]     }
[62] }
[62] 
[62] Selecting decompositionMethod scotch
[399]  Foam::decompositionMethod::New 
[399] {
[399]     numberOfSubdomains 448;
[399]     method          scotch;
[399]     simpleCoeffs
[399]     {
[399]         n               ( 4 1 1 );
[399]         delta           0.001;
[399]     }
[399]     hierarchicalCoeffs
[399]     {
[399]         n               ( 3 2 1 );
[399]         delta           0.001;
[399]         order           xyz;
[399]     }
[399]     manualCoeffs
[399]     {
[399]         dataFile        "cellDecomposition";
[399]     }
[399] }
[399] 
[399] Selecting decompositionMethod scotch
[231]  Foam::decompositionMethod::New 
[231] {
[231]     numberOfSubdomains 448;
[231]     method          scotch;
[231]     simpleCoeffs
[231]     {
[231]         n               ( 4 1 1 );
[231]         delta           0.001;
[231]     }
[231]     hierarchicalCoeffs
[231]     {
[231]         n               ( 3 2 1 );
[231]         delta           0.001;
[231]         order           xyz;
[231]     }
[231]     manualCoeffs
[231]     {
[231]         dataFile        "cellDecomposition";
[231]     }
[231] }
[231] 
[231] Selecting decompositionMethod scotch
[175]  Foam::decompositionMethod::New 
[175] {
[175]     numberOfSubdomains 448;
[175]     method          scotch;
[175]     simpleCoeffs
[175]     {
[175]         n               ( 4 1 1 );
[175]         delta           0.001;
[175]     }
[175]     hierarchicalCoeffs
[175]     {
[175]         n               ( 3 2 1 );
[175]         delta           0.001;
[175]         order           xyz;
[175]     }
[175]     manualCoeffs
[175]     {
[175]         dataFile        "cellDecomposition";
[175]     }
[175] }
[175] 
[175] Selecting decompositionMethod scotch
[287]  Foam::decompositionMethod::New 
[287] {
[287]     numberOfSubdomains 448;
[287]     method          scotch;
[287]     simpleCoeffs
[287]     {
[287]         n               ( 4 1 1 );
[287]         delta           0.001;
[287]     }
[287]     hierarchicalCoeffs
[287]     {
[287]         n               ( 3 2 1 );
[287]         delta           0.001;
[287]         order           xyz;
[287]     }
[287]     manualCoeffs
[287]     {
[287]         dataFile        "cellDecomposition";
[287]     }
[287] }
[287] 
[287] Selecting decompositionMethod scotch
[119]  Foam::decompositionMethod::New 
[119] {
[119]     numberOfSubdomains 448;
[119]     method          scotch;
[119]     simpleCoeffs
[119]     {
[119]         n               ( 4 1 1 );
[119]         delta           0.001;
[119]     }
[119]     hierarchicalCoeffs
[119]     {
[119]         n               ( 3 2 1 );
[119]         delta           0.001;
[119]         order           xyz;
[119]     }
[119]     manualCoeffs
[119]     {
[119]         dataFile        "cellDecomposition";
[119]     }
[119] }
[119] 
[119] Selecting decompositionMethod scotch
[343]  Foam::decompositionMethod::New 
[343] {
[343]     numberOfSubdomains 448;
[343]     method          scotch;
[343]     simpleCoeffs
[343]     {
[343]         n               ( 4 1 1 );
[343]         delta           0.001;
[343]     }
[343]     hierarchicalCoeffs
[343]     {
[343]         n               ( 3 2 1 );
[343]         delta           0.001;
[343]         order           xyz;
[343]     }
[343]     manualCoeffs
[343]     {
[343]         dataFile        "cellDecomposition";
[343]     }
[343] }
[343] 
[343] Selecting decompositionMethod scotch
[63]  Foam::decompositionMethod::New 
[63] {
[63]     numberOfSubdomains 448;
[63]     method          scotch;
[63]     simpleCoeffs
[63]     {
[63]         n               ( 4 1 1 );
[63]         delta           0.001;
[63]     }
[63]     hierarchicalCoeffs
[63]     {
[63]         n               ( 3 2 1 );
[63]         delta           0.001;
[63]         order           xyz;
[63]     }
[63]     manualCoeffs
[63]     {
[63]         dataFile        "cellDecomposition";
[63]     }
[63] }
[63] 
[63] Selecting decompositionMethod scotch
[400]  Foam::decompositionMethod::New 
[400] {
[400]     numberOfSubdomains 448;
[400]     method          scotch;
[400]     simpleCoeffs
[400]     {
[400]         n               ( 4 1 1 );
[400]         delta           0.001;
[400]     }
[400]     hierarchicalCoeffs
[400]     {
[400]         n               ( 3 2 1 );
[400]         delta           0.001;
[400]         order           xyz;
[400]     }
[400]     manualCoeffs
[400]     {
[400]         dataFile        "cellDecomposition";
[400]     }
[400] }
[400] 
[400] Selecting decompositionMethod scotch
[232]  Foam::decompositionMethod::New 
[232] {
[232]     numberOfSubdomains 448;
[232]     method          scotch;
[232]     simpleCoeffs
[232]     {
[232]         n               ( 4 1 1 );
[232]         delta           0.001;
[232]     }
[232]     hierarchicalCoeffs
[232]     {
[232]         n               ( 3 2 1 );
[232]         delta           0.001;
[232]         order           xyz;
[232]     }
[232]     manualCoeffs
[232]     {
[232]         dataFile        "cellDecomposition";
[232]     }
[232] }
[232] 
[232] Selecting decompositionMethod scotch
[176]  Foam::decompositionMethod::New 
[176] {
[176]     numberOfSubdomains 448;
[176]     method          scotch;
[176]     simpleCoeffs
[176]     {
[176]         n               ( 4 1 1 );
[176]         delta           0.001;
[176]     }
[176]     hierarchicalCoeffs
[176]     {
[176]         n               ( 3 2 1 );
[176]         delta           0.001;
[176]         order           xyz;
[176]     }
[176]     manualCoeffs
[176]     {
[176]         dataFile        "cellDecomposition";
[176]     }
[176] }
[176] 
[176] Selecting decompositionMethod scotch
[288]  Foam::decompositionMethod::New 
[288] {
[288]     numberOfSubdomains 448;
[288]     method          scotch;
[288]     simpleCoeffs
[288]     {
[288]         n               ( 4 1 1 );
[288]         delta           0.001;
[288]     }
[288]     hierarchicalCoeffs
[288]     {
[288]         n               ( 3 2 1 );
[288]         delta           0.001;
[288]         order           xyz;
[288]     }
[288]     manualCoeffs
[288]     {
[288]         dataFile        "cellDecomposition";
[288]     }
[288] }
[288] 
[288] Selecting decompositionMethod scotch
[120]  Foam::decompositionMethod::New 
[120] {
[120]     numberOfSubdomains 448;
[120]     method          scotch;
[120]     simpleCoeffs
[120]     {
[120]         n               ( 4 1 1 );
[120]         delta           0.001;
[120]     }
[120]     hierarchicalCoeffs
[120]     {
[120]         n               ( 3 2 1 );
[120]         delta           0.001;
[120]         order           xyz;
[120]     }
[120]     manualCoeffs
[120]     {
[120]         dataFile        "cellDecomposition";
[120]     }
[120] }
[120] 
[120] Selecting decompositionMethod scotch
[344]  Foam::decompositionMethod::New 
[344] {
[344]     numberOfSubdomains 448;
[344]     method          scotch;
[344]     simpleCoeffs
[344]     {
[344]         n               ( 4 1 1 );
[344]         delta           0.001;
[344]     }
[344]     hierarchicalCoeffs
[344]     {
[344]         n               ( 3 2 1 );
[344]         delta           0.001;
[344]         order           xyz;
[344]     }
[344]     manualCoeffs
[344]     {
[344]         dataFile        "cellDecomposition";
[344]     }
[344] }
[344] 
[344] Selecting decompositionMethod scotch
[64]  Foam::decompositionMethod::New 
[64] {
[64]     numberOfSubdomains 448;
[64]     method          scotch;
[64]     simpleCoeffs
[64]     {
[64]         n               ( 4 1 1 );
[64]         delta           0.001;
[64]     }
[64]     hierarchicalCoeffs
[64]     {
[64]         n               ( 3 2 1 );
[64]         delta           0.001;
[64]         order           xyz;
[64]     }
[64]     manualCoeffs
[64]     {
[...]
    faces with concavity > 80  degrees                     : 0
    faces with skewness > 4   (internal) or 20  (boundary) : 0
    faces with interpolation weights (0..1)  < 0.02        : 0
    faces with volume ratio of neighbour cells < 0.01      : 0
    faces with face twist < 0.02                           : 0
    faces on cells with determinant < 0.001                : 0
displacementMedialAxis : Successfully moved mesh
displacementMedialAxis : Finished moving mesh ...
truncateDisplacement : Unextruded 0 faces due to non-consecutive vertices being extruded.
truncateDisplacement : Unextruded 1 faces due to stringed edges with inconsistent extrusion.
truncateDisplacement : Unextruded 0 faces due to non-consecutive vertices being extruded.
truncateDisplacement : Unextruded 0 faces due to stringed edges with inconsistent extrusion.

Setting up information for layer truncation ...

Checking mesh with layer ...
Checking faces in error :
    non-orthogonality > 65  degrees                        : 2
    faces with face pyramid volume < 1e-13                 : 0
    faces with face-decomposition tet quality < 1e-15      : 4
    faces with concavity > 80  degrees                     : 0
    faces with skewness > 4   (internal) or 20  (boundary) : 0
    faces with interpolation weights (0..1)  < 0.02        : 0
    faces with volume ratio of neighbour cells < 0.01      : 0
    faces with face twist < 0.02                           : 0
    faces on cells with determinant < 0.001                : 0
Detected 6 illegal faces (concave, zero area or negative cell pyramid volume)
Extruding 143233 out of 183059 faces (78.2442%). Removed extrusion at 5 faces.
Added 143238 out of 183059 cells (78.2469%).


Layer addition iteration 19
--------------------------

Determining displacement for added points according to pointNormal ...
Detected 0 points with point normal pointing through faces.
Reset displacement at 0 points to average of surrounding points.

displacementMedialAxis : Smoothing using Medial Axis ...
displacementMedialAxis : Reducing layer thickness at 513 nodes where thickness to medial axis distance is large 
displacementMedialAxis : Removing isolated regions ...
displacementMedialAxis : Number of isolated points extrusion stopped : 14
displacementMedialAxis : Smoothing field ...
    Iteration 0   residual 4.65556e-05
displacementMedialAxis : Moving mesh ...
displacementMedialAxis : Iteration 0
Moving mesh using displacement scaling : min:1  max:1
Checking faces in error :
    non-orthogonality > 65  degrees                        : 1
    faces with face pyramid volume < 1e-13                 : 0
    faces with face-decomposition tet quality < 1e-15      : 20
    faces with concavity > 80  degrees                     : 0
    faces with skewness > 4   (internal) or 20  (boundary) : 0
    faces with interpolation weights (0..1)  < 0.02        : 0
    faces with volume ratio of neighbour cells < 0.01      : 0
    faces with face twist < 0.02                           : 1
    faces on cells with determinant < 0.001                : 0
displacementMedialAxis : Iteration 1
Moving mesh using displacement scaling : min:0.75  max:1
Checking faces in error :
    non-orthogonality > 65  degrees                        : 0
    faces with face pyramid volume < 1e-13                 : 0
    faces with face-decomposition tet quality < 1e-15      : 6
    faces with concavity > 80  degrees                     : 0
    faces with skewness > 4   (internal) or 20  (boundary) : 0
    faces with interpolation weights (0..1)  < 0.02        : 0
    faces with volume ratio of neighbour cells < 0.01      : 0
    faces with face twist < 0.02                           : 0
    faces on cells with determinant < 0.001                : 0
displacementMedialAxis : Iteration 2
Moving mesh using displacement scaling : min:0.5625  max:1
Checking faces in error :
    non-orthogonality > 65  degrees                        : 0
    faces with face pyramid volume < 1e-13                 : 0
    faces with face-decomposition tet quality < 1e-15      : 2
    faces with concavity > 80  degrees                     : 0
    faces with skewness > 4   (internal) or 20  (boundary) : 0
    faces with interpolation weights (0..1)  < 0.02        : 0
    faces with volume ratio of neighbour cells < 0.01      : 0
    faces with face twist < 0.02                           : 0
    faces on cells with determinant < 0.001                : 0
displacementMedialAxis : Iteration 3
displacementMedialAxis : Displacement scaling for error reduction set to 0.
Moving mesh using displacement scaling : min:0.421875  max:1
Checking faces in error :
    non-orthogonality > 65  degrees                        : 0
    faces with face pyramid volume < 1e-13                 : 0
    faces with face-decomposition tet quality < 1e-15      : 2
    faces with concavity > 80  degrees                     : 0
    faces with skewness > 4   (internal) or 20  (boundary) : 0
    faces with interpolation weights (0..1)  < 0.02        : 0
    faces with volume ratio of neighbour cells < 0.01      : 0
    faces with face twist < 0.02                           : 0
    faces on cells with determinant < 0.001                : 0
displacementMedialAxis : Iteration 4
Moving mesh using displacement scaling : min:0  max:1
Checking faces in error :
    non-orthogonality > 65  degrees                        : 0
    faces with face pyramid volume < 1e-13                 : 0
    faces with face-decomposition tet quality < 1e-15      : 0
    faces with concavity > 80  degrees                     : 0
    faces with skewness > 4   (internal) or 20  (boundary) : 0
    faces with interpolation weights (0..1)  < 0.02        : 0
    faces with volume ratio of neighbour cells < 0.01      : 0
    faces with face twist < 0.02                           : 0
    faces on cells with determinant < 0.001                : 0
displacementMedialAxis : Successfully moved mesh
displacementMedialAxis : Finished moving mesh ...
truncateDisplacement : Unextruded 0 faces due to non-consecutive vertices being extruded.
truncateDisplacement : Unextruded 0 faces due to stringed edges with inconsistent extrusion.

Setting up information for layer truncation ...

Checking mesh with layer ...
Checking faces in error :
    non-orthogonality > 65  degrees                        : 3
    faces with face pyramid volume < 1e-13                 : 0
    faces with face-decomposition tet quality < 1e-15      : 5
    faces with concavity > 80  degrees                     : 0
    faces with skewness > 4   (internal) or 20  (boundary) : 0
    faces with interpolation weights (0..1)  < 0.02        : 0
    faces with volume ratio of neighbour cells < 0.01      : 0
    faces with face twist < 0.02                           : 0
    faces on cells with determinant < 0.001                : 0
Detected 8 illegal faces (concave, zero area or negative cell pyramid volume)
Extruding 143211 out of 183059 faces (78.2322%). Removed extrusion at 8 faces.
Added 143221 out of 183059 cells (78.2376%).


Layer addition iteration 20
--------------------------

Determining displacement for added points according to pointNormal ...
Detected 0 points with point normal pointing through faces.
Reset displacement at 0 points to average of surrounding points.

displacementMedialAxis : Smoothing using Medial Axis ...
displacementMedialAxis : Reducing layer thickness at 513 nodes where thickness to medial axis distance is large 
displacementMedialAxis : Removing isolated regions ...
displacementMedialAxis : Number of isolated points extrusion stopped : 12
displacementMedialAxis : Smoothing field ...
    Iteration 0   residual 4.65333e-05
displacementMedialAxis : Moving mesh ...
displacementMedialAxis : Iteration 0
Moving mesh using displacement scaling : min:1  max:1
Checking faces in error :
    non-orthogonality > 65  degrees                        : 1
    faces with face pyramid volume < 1e-13                 : 0
    faces with face-decomposition tet quality < 1e-15      : 20
    faces with concavity > 80  degrees                     : 0
    faces with skewness > 4   (internal) or 20  (boundary) : 0
    faces with interpolation weights (0..1)  < 0.02        : 0
    faces with volume ratio of neighbour cells < 0.01      : 0
    faces with face twist < 0.02                           : 1
    faces on cells with determinant < 0.001                : 0
displacementMedialAxis : Iteration 1
Moving mesh using displacement scaling : min:0.75  max:1
Checking faces in error :
    non-orthogonality > 65  degrees                        : 0
    faces with face pyramid volume < 1e-13                 : 0
    faces with face-decomposition tet quality < 1e-15      : 6
    faces with concavity > 80  degrees                     : 0
    faces with skewness > 4   (internal) or 20  (boundary) : 0
    faces with interpolation weights (0..1)  < 0.02        : 0
    faces with volume ratio of neighbour cells < 0.01      : 0
    faces with face twist < 0.02                           : 0
    faces on cells with determinant < 0.001                : 0
displacementMedialAxis : Iteration 2
Moving mesh using displacement scaling : min:0.5625  max:1
Checking faces in error :
    non-orthogonality > 65  degrees                        : 0
    faces with face pyramid volume < 1e-13                 : 0
    faces with face-decomposition tet quality < 1e-15      : 2
    faces with concavity > 80  degrees                     : 0
    faces with skewness > 4   (internal) or 20  (boundary) : 0
    faces with interpolation weights (0..1)  < 0.02        : 0
    faces with volume ratio of neighbour cells < 0.01      : 0
    faces with face twist < 0.02                           : 0
    faces on cells with determinant < 0.001                : 0
displacementMedialAxis : Iteration 3
displacementMedialAxis : Displacement scaling for error reduction set to 0.
Moving mesh using displacement scaling : min:0.421875  max:1
Checking faces in error :
    non-orthogonality > 65  degrees                        : 0
    faces with face pyramid volume < 1e-13                 : 0
    faces with face-decomposition tet quality < 1e-15      : 2
    faces with concavity > 80  degrees                     : 0
    faces with skewness > 4   (internal) or 20  (boundary) : 0
    faces with interpolation weights (0..1)  < 0.02        : 0
    faces with volume ratio of neighbour cells < 0.01      : 0
    faces with face twist < 0.02                           : 0
    faces on cells with determinant < 0.001                : 0
displacementMedialAxis : Iteration 4
Moving mesh using displacement scaling : min:0  max:1
Checking faces in error :
    non-orthogonality > 65  degrees                        : 0
    faces with face pyramid volume < 1e-13                 : 0
    faces with face-decomposition tet quality < 1e-15      : 0
    faces with concavity > 80  degrees                     : 0
    faces with skewness > 4   (internal) or 20  (boundary) : 0
    faces with interpolation weights (0..1)  < 0.02        : 0
    faces with volume ratio of neighbour cells < 0.01      : 0
    faces with face twist < 0.02                           : 0
    faces on cells with determinant < 0.001                : 0
displacementMedialAxis : Successfully moved mesh
displacementMedialAxis : Finished moving mesh ...
truncateDisplacement : Unextruded 0 faces due to non-consecutive vertices being extruded.
truncateDisplacement : Unextruded 0 faces due to stringed edges with inconsistent extrusion.

Setting up information for layer truncation ...

Checking mesh with layer ...
Checking faces in error :
    non-orthogonality > 65  degrees                        : 0
    faces with face pyramid volume < 1e-13                 : 0
    faces with face-decomposition tet quality < 1e-15      : 0
    faces with concavity > 80  degrees                     : 0
    faces with skewness > 4   (internal) or 20  (boundary) : 0
    faces with interpolation weights (0..1)  < 0.02        : 0
    faces with volume ratio of neighbour cells < 0.01      : 0
    faces with face twist < 0.02                           : 0
    faces on cells with determinant < 0.001                : 0
Detected 0 illegal faces (concave, zero area or negative cell pyramid volume)
Extruding 143195 out of 183059 faces (78.2234%). Removed extrusion at 0 faces.
Added 143195 out of 183059 cells (78.2234%).
Edge intersection testing:
    Number of edges             : 5916836
    Number of edges to retest   : 0
    Number of intersected edges : 292582

Doing final balancing
---------------------

Writing 143195 added cells to cellSet addedCells
Writing 0 faces inside added layer to faceSet layerFaces

Writing fields with layer information:
    nSurfaceLayers    : actual number of layers
    thickness         : overall layer thickness
    thicknessFraction : overall layer thickness (fraction of desired thickness)


patch                                            faces    layers   overall thickness
                                                                   [m]       [%]
-----                                            -----    ------   ---       ---
lowerWall                                        15846    0.993    0.0145    96.3    
motorBike_frt-fairing:001%1                      21784    0.737    0.00131   56      
motorBike_windshield:002%2                       180      0.967    0.00218   92.8    
motorBike_rr-wh-rim:005%5                        564      0.853    0.00104   44.6    
motorBike_rr-wh-rim:010%10                       1382     0.169    0.00027   11.5    
motorBike_fr-wh-rim:011%11                       1789     0.534    0.000578  24.7    
motorBike_fr-wh-brake-disk:012%12                256      1        0.00104   44.4    
motorBike_frame:016-shadow%13                    425      0.464    0.000397  17.1    
motorBike_rear-susp:014%14                       3645     0.774    0.00106   45.2    
motorBike_rear-susp:014-shadow%15                2138     0.753    0.00105   44.8    
motorBike_frame:016%16                           253      0.431    0.000359  15.3    
motorBike_rr-wh-rim:005-shadow%17                321      0.822    0.000972  41.6    
motorBike_rr-wh-chain-hub:022%22                 465      0.54     0.000528  22.5    
motorBike_rearseat%24                            1370     0.877    0.00174   68.3    
motorBike_frt-fairing%25                         2215     0.875    0.00148   62.3    
motorBike_windshield%26                          1464     0.63     0.00108   46      
motorBike_headlights%27                          589      0.98     0.00215   91.6    
motorBike_driversseat%28                         1605     0.781    0.00121   51.4    
motorBike_rear-body%29                           7419     0.886    0.00161   66.4    
motorBike_fuel-tank%30                           3235     0.914    0.00189   77.5    
motorBike_exhaust%31                             8493     0.713    0.00132   53.1    
motorBike_rr-wh-rim%32                           4390     0.881    0.00147   58.7    
motorBike_fr-mud-guard%33                        3122     0.592    0.000796  34.1    
motorBike_fr-wh-rim%34                           2205     0.918    0.00157   67.2    
motorBike_fr-wh-brake-disk%35                    1742     0.793    0.000784  33.5    
motorBike_fr-brake-caliper%36                    573      0.321    0.000225  9.64    
motorBike_fr-wh-tyre%37                          5024     0.732    0.00134   57.4    
motorBike_hbars%38                               2046     0.231    0.000242  10.4    
motorBike_fr-forks%39                            4352     0.72     0.00131   56      
motorBike_chain%40                               1798     0.118    8.28e-05  3.55    
motorBike_rr-wh-tyre%41                          4578     0.796    0.00173   59.1    
motorBike_square-dial%42                         20       1        0.00192   81.9    
motorBike_round-dial%43                          45       0.978    0.00105   45      
motorBike_dial-holder%44                         344      0.738    0.000682  29.3    
motorBike_rear-susp%45                           7101     0.789    0.000957  40.9    
motorBike_rear-brake-lights%46                   201      0.488    0.000419  18.2    
motorBike_rear-light-bracket%47                  635      0.831    0.00116   49.7    
motorBike_frame%48                               7632     0.796    0.00133   56.8    
motorBike_rear-mud-guard%49                      2560     0.741    0.00125   53.5    
motorBike_rear-susp-spring-damp%50               458      0.622    0.000565  24.2    
motorBike_fairing-inner-plate%51                 1560     0.81     0.00129   52      
motorBike_clutch-housing%52                      3788     0.969    0.00178   75.2    
motorBike_radiator%53                            430      0.165    8.02e-05  3.42    
motorBike_water-pipe%54                          323      0        0         0       
motorBike_water-pump%55                          267      0.378    0.000323  14      
motorBike_engine%56                              8664     0.899    0.00153   64.1    
motorBike_rear-shock-link%57                     112      0        0         0       
motorBike_rear-brake-fluid-pot-bracket%58        169      0.568    0.000487  20.9    
motorBike_rear-brake-fluid-pot%59                201      0.552    0.000325  14      
motorBike_footpeg%60                             348      0.339    0.000168  7.23    
motorBike_rr-wh-chain-hub%61                     464      0.726    0.000689  29.4    
motorBike_rear-brake-caliper%62                  575      0.357    0.000291  12.4    
motorBike_rider-helmet%65                        1797     0.953    0.00232   79.1    
motorBike_rider-visor%66                         549      1        0.00231   97      
motorBike_rider-boots%67                         3735     0.962    0.00198   84.2    
motorBike_rider-gloves%68                        1210     0.409    0.0007    29.9    
motorBike_rider-body%69                          14276    0.934    0.0022    81.1    
motorBike_frame:0%70                             141      0.667    0.00104   44.3    
motorBike_frt-fairing:001-shadow%74              13660    0.712    0.00129   55.2    
motorBike_windshield-shadow%75                   1042     0.606    0.00106   45.4    
motorBike_fr-mud-guard-shadow%81                 2045     0.58     0.00082   35      
motorBike_fr-wh-brake-disk-shadow%83             923      0.758    0.000759  32.5    
motorBike_rear-mud-guard-shadow%84               1609     0.702    0.00119   50.8    
motorBike_rear-susp-spring-damp-shadow%85        263      0.517    0.000455  19.4    
motorBike_radiator-shadow%86                     240      0.154    9.07e-05  3.87    
motorBike_rear-shock-link-shadow%87              53       0        0         0       
motorBike_rear-brake-fluid-pot-bracket-shadow%88 87       0.506    0.000547  23.9    
motorBike_rr-wh-chain-hub-shadow%89              264      0.712    0.000591  25.2    

Layer mesh : cells:1905917  faces:5916836  points:2127547
Cells per refinement level:
    0	9543
    1	4948
    2	16076
    3	48272
    4	991382
    5	127904
    6	707792
Writing mesh to time constant
Wrote mesh in = 50.97 s.
Layers added in = 50.97 s.
Checking final mesh ...
Checking faces in error :
    non-orthogonality > 65  degrees                        : 0
    faces with face pyramid volume < 1e-13                 : 0
    faces with face-decomposition tet quality < 1e-15      : 0
    faces with concavity > 80  degrees                     : 0
    faces with skewness > 4   (internal) or 20  (boundary) : 0
    faces with interpolation weights (0..1)  < 0.02        : 0
    faces with volume ratio of neighbour cells < 0.01      : 0
    faces with face twist < 0.02                           : 0
    faces on cells with determinant < 0.001                : 0
Finished meshing without any errors
Finished meshing in = 216.64 s.
End

Finalising parallel run
