Cleaning /rds/user/hpcbras1/hpc-work/csd3/cclake-roce-gcc9-ompi3-ucx/openfoam/Openfoam_Mbike_csd3_cclake_roce_gcc9_ompi3_ucx_448_56 case
Running surfaceFeatureExtract on /rds/user/hpcbras1/hpc-work/csd3/cclake-roce-gcc9-ompi3-ucx/openfoam/Openfoam_Mbike_csd3_cclake_roce_gcc9_ompi3_ucx_448_56
Running blockMesh on /rds/user/hpcbras1/hpc-work/csd3/cclake-roce-gcc9-ompi3-ucx/openfoam/Openfoam_Mbike_csd3_cclake_roce_gcc9_ompi3_ucx_448_56
Running decomposePar on /rds/user/hpcbras1/hpc-work/csd3/cclake-roce-gcc9-ompi3-ucx/openfoam/Openfoam_Mbike_csd3_cclake_roce_gcc9_ompi3_ucx_448_56
Running snappyHexMesh in parallel on /rds/user/hpcbras1/hpc-work/csd3/cclake-roce-gcc9-ompi3-ucx/openfoam/Openfoam_Mbike_csd3_cclake_roce_gcc9_ompi3_ucx_448_56 using 448 processes
/*---------------------------------------------------------------------------*\
  =========                 |
  \\      /  F ield         | OpenFOAM: The Open Source CFD Toolbox
   \\    /   O peration     | Website:  https://openfoam.org
    \\  /    A nd           | Version:  7
     \\/     M anipulation  |
\*---------------------------------------------------------------------------*/
Build  : 7
Exec   : /home/hpcbras1/spack/opt/spack/linux-scientific7-skylake_avx512/gcc-9.1.0/openfoam-org-7-dahapwszurcwmfsxldhpukzh3tv4odmy/platforms/linux64GccDPInt32-spack/bin/simpleFoam -parallel
Date   : Oct 14 2020
Time   : 17:43:14
Host   : "cpu-p-288"
PID    : 133171
I/O    : uncollated
Case   : /rds/user/hpcbras1/hpc-work/csd3/cclake-roce-gcc9-ompi3-ucx/openfoam/Openfoam_Mbike_csd3_cclake_roce_gcc9_ompi3_ucx_448_56
nProcs : 448
Slaves : 
447
(
"cpu-p-288.133172"
"cpu-p-288.133173"
"cpu-p-288.133174"
"cpu-p-288.133175"
"cpu-p-288.133176"
"cpu-p-288.133177"
"cpu-p-288.133178"
"cpu-p-288.133179"
"cpu-p-288.133180"
"cpu-p-288.133181"
"cpu-p-288.133182"
"cpu-p-288.133183"
"cpu-p-288.133184"
"cpu-p-288.133185"
"cpu-p-288.133186"
"cpu-p-288.133187"
"cpu-p-288.133188"
"cpu-p-288.133189"
"cpu-p-288.133190"
"cpu-p-288.133191"
"cpu-p-288.133192"
"cpu-p-288.133193"
"cpu-p-288.133194"
"cpu-p-288.133195"
"cpu-p-288.133196"
"cpu-p-288.133197"
"cpu-p-288.133198"
"cpu-p-288.133199"
"cpu-p-288.133200"
"cpu-p-288.133201"
"cpu-p-288.133202"
"cpu-p-288.133203"
"cpu-p-288.133204"
"cpu-p-288.133205"
"cpu-p-288.133206"
"cpu-p-288.133207"
"cpu-p-288.133208"
"cpu-p-288.133209"
"cpu-p-288.133210"
"cpu-p-288.133211"
"cpu-p-288.133212"
"cpu-p-288.133213"
"cpu-p-288.133214"
"cpu-p-288.133215"
"cpu-p-288.133216"
"cpu-p-288.133217"
"cpu-p-288.133218"
"cpu-p-288.133219"
"cpu-p-288.133220"
"cpu-p-288.133221"
"cpu-p-288.133222"
"cpu-p-288.133223"
"cpu-p-288.133224"
"cpu-p-288.133225"
"cpu-p-288.133226"
"cpu-p-289.284183"
"cpu-p-289.284184"
"cpu-p-289.284185"
"cpu-p-289.284186"
"cpu-p-289.284187"
"cpu-p-289.284188"
"cpu-p-289.284189"
"cpu-p-289.284190"
"cpu-p-289.284191"
"cpu-p-289.284192"
"cpu-p-289.284193"
"cpu-p-289.284194"
"cpu-p-289.284195"
"cpu-p-289.284196"
"cpu-p-289.284197"
"cpu-p-289.284198"
"cpu-p-289.284199"
"cpu-p-289.284200"
"cpu-p-289.284201"
"cpu-p-289.284202"
"cpu-p-289.284203"
"cpu-p-289.284204"
"cpu-p-289.284205"
"cpu-p-289.284206"
"cpu-p-289.284207"
"cpu-p-289.284208"
"cpu-p-289.284209"
"cpu-p-289.284210"
"cpu-p-289.284211"
"cpu-p-289.284212"
"cpu-p-289.284213"
"cpu-p-289.284214"
"cpu-p-289.284215"
"cpu-p-289.284216"
"cpu-p-289.284217"
"cpu-p-289.284218"
"cpu-p-289.284219"
"cpu-p-289.284220"
"cpu-p-289.284221"
"cpu-p-289.284222"
"cpu-p-289.284223"
"cpu-p-289.284224"
"cpu-p-289.284225"
"cpu-p-289.284226"
"cpu-p-289.284227"
"cpu-p-289.284228"
"cpu-p-289.284229"
"cpu-p-289.284230"
"cpu-p-289.284231"
"cpu-p-289.284232"
"cpu-p-289.284233"
"cpu-p-289.284234"
"cpu-p-289.284235"
"cpu-p-289.284236"
"cpu-p-289.284237"
"cpu-p-289.284238"
"cpu-p-290.212853"
"cpu-p-290.212854"
"cpu-p-290.212855"
"cpu-p-290.212856"
"cpu-p-290.212857"
"cpu-p-290.212858"
"cpu-p-290.212859"
"cpu-p-290.212860"
"cpu-p-290.212861"
"cpu-p-290.212862"
"cpu-p-290.212863"
"cpu-p-290.212864"
"cpu-p-290.212865"
"cpu-p-290.212866"
"cpu-p-290.212867"
"cpu-p-290.212868"
"cpu-p-290.212869"
"cpu-p-290.212870"
"cpu-p-290.212871"
"cpu-p-290.212872"
"cpu-p-290.212873"
"cpu-p-290.212874"
"cpu-p-290.212875"
"cpu-p-290.212876"
"cpu-p-290.212877"
"cpu-p-290.212878"
"cpu-p-290.212879"
"cpu-p-290.212880"
"cpu-p-290.212881"
"cpu-p-290.212882"
"cpu-p-290.212883"
"cpu-p-290.212884"
"cpu-p-290.212885"
"cpu-p-290.212886"
"cpu-p-290.212887"
"cpu-p-290.212888"
"cpu-p-290.212889"
"cpu-p-290.212890"
"cpu-p-290.212891"
"cpu-p-290.212892"
"cpu-p-290.212893"
"cpu-p-290.212894"
"cpu-p-290.212895"
"cpu-p-290.212896"
"cpu-p-290.212897"
"cpu-p-290.212898"
"cpu-p-290.212899"
"cpu-p-290.212900"
"cpu-p-290.212901"
"cpu-p-290.212902"
"cpu-p-290.212903"
"cpu-p-290.212904"
"cpu-p-290.212905"
"cpu-p-290.212906"
"cpu-p-290.212907"
"cpu-p-290.212908"
"cpu-p-291.123019"
"cpu-p-291.123020"
"cpu-p-291.123021"
"cpu-p-291.123022"
"cpu-p-291.123023"
"cpu-p-291.123024"
"cpu-p-291.123025"
"cpu-p-291.123026"
"cpu-p-291.123027"
"cpu-p-291.123028"
"cpu-p-291.123029"
"cpu-p-291.123030"
"cpu-p-291.123031"
"cpu-p-291.123032"
"cpu-p-291.123033"
"cpu-p-291.123034"
"cpu-p-291.123035"
"cpu-p-291.123036"
"cpu-p-291.123037"
"cpu-p-291.123038"
"cpu-p-291.123039"
"cpu-p-291.123040"
"cpu-p-291.123041"
"cpu-p-291.123042"
"cpu-p-291.123043"
"cpu-p-291.123044"
"cpu-p-291.123045"
"cpu-p-291.123046"
"cpu-p-291.123047"
"cpu-p-291.123048"
"cpu-p-291.123049"
"cpu-p-291.123050"
"cpu-p-291.123051"
"cpu-p-291.123052"
"cpu-p-291.123053"
"cpu-p-291.123054"
"cpu-p-291.123055"
"cpu-p-291.123056"
"cpu-p-291.123057"
"cpu-p-291.123058"
"cpu-p-291.123059"
"cpu-p-291.123060"
"cpu-p-291.123061"
"cpu-p-291.123062"
"cpu-p-291.123063"
"cpu-p-291.123064"
"cpu-p-291.123065"
"cpu-p-291.123066"
"cpu-p-291.123067"
"cpu-p-291.123068"
"cpu-p-291.123069"
"cpu-p-291.123070"
"cpu-p-291.123071"
"cpu-p-291.123072"
"cpu-p-291.123073"
"cpu-p-291.123074"
"cpu-p-292.213231"
"cpu-p-292.213232"
"cpu-p-292.213233"
"cpu-p-292.213234"
"cpu-p-292.213235"
"cpu-p-292.213236"
"cpu-p-292.213237"
"cpu-p-292.213238"
"cpu-p-292.213239"
"cpu-p-292.213240"
"cpu-p-292.213241"
"cpu-p-292.213242"
"cpu-p-292.213243"
"cpu-p-292.213244"
"cpu-p-292.213245"
"cpu-p-292.213246"
"cpu-p-292.213247"
"cpu-p-292.213248"
"cpu-p-292.213249"
"cpu-p-292.213250"
"cpu-p-292.213251"
"cpu-p-292.213252"
"cpu-p-292.213253"
"cpu-p-292.213254"
"cpu-p-292.213255"
"cpu-p-292.213256"
"cpu-p-292.213257"
"cpu-p-292.213258"
"cpu-p-292.213259"
"cpu-p-292.213260"
"cpu-p-292.213261"
"cpu-p-292.213262"
"cpu-p-292.213263"
"cpu-p-292.213264"
"cpu-p-292.213265"
"cpu-p-292.213266"
"cpu-p-292.213267"
"cpu-p-292.213268"
"cpu-p-292.213269"
"cpu-p-292.213270"
"cpu-p-292.213271"
"cpu-p-292.213272"
"cpu-p-292.213273"
"cpu-p-292.213274"
"cpu-p-292.213275"
"cpu-p-292.213276"
"cpu-p-292.213277"
"cpu-p-292.213278"
"cpu-p-292.213279"
"cpu-p-292.213280"
"cpu-p-292.213281"
"cpu-p-292.213282"
"cpu-p-292.213283"
"cpu-p-292.213284"
"cpu-p-292.213285"
"cpu-p-292.213286"
"cpu-p-293.149909"
"cpu-p-293.149910"
"cpu-p-293.149911"
"cpu-p-293.149912"
"cpu-p-293.149913"
"cpu-p-293.149914"
"cpu-p-293.149915"
"cpu-p-293.149916"
"cpu-p-293.149917"
"cpu-p-293.149918"
"cpu-p-293.149919"
"cpu-p-293.149920"
"cpu-p-293.149921"
"cpu-p-293.149922"
"cpu-p-293.149923"
"cpu-p-293.149924"
"cpu-p-293.149925"
"cpu-p-293.149926"
"cpu-p-293.149927"
"cpu-p-293.149928"
"cpu-p-293.149929"
"cpu-p-293.149930"
"cpu-p-293.149931"
"cpu-p-293.149932"
"cpu-p-293.149933"
"cpu-p-293.149934"
"cpu-p-293.149935"
"cpu-p-293.149936"
"cpu-p-293.149937"
"cpu-p-293.149938"
"cpu-p-293.149939"
"cpu-p-293.149940"
"cpu-p-293.149941"
"cpu-p-293.149942"
"cpu-p-293.149943"
"cpu-p-293.149944"
"cpu-p-293.149945"
"cpu-p-293.149946"
"cpu-p-293.149947"
"cpu-p-293.149948"
"cpu-p-293.149949"
"cpu-p-293.149950"
"cpu-p-293.149951"
"cpu-p-293.149952"
"cpu-p-293.149953"
"cpu-p-293.149954"
"cpu-p-293.149955"
"cpu-p-293.149956"
"cpu-p-293.149957"
"cpu-p-293.149958"
"cpu-p-293.149959"
"cpu-p-293.149960"
"cpu-p-293.149961"
"cpu-p-293.149962"
"cpu-p-293.149963"
"cpu-p-293.149964"
"cpu-p-294.203812"
"cpu-p-294.203813"
"cpu-p-294.203814"
"cpu-p-294.203815"
"cpu-p-294.203816"
"cpu-p-294.203817"
"cpu-p-294.203818"
"cpu-p-294.203819"
"cpu-p-294.203820"
"cpu-p-294.203821"
"cpu-p-294.203822"
"cpu-p-294.203823"
"cpu-p-294.203824"
"cpu-p-294.203825"
"cpu-p-294.203826"
"cpu-p-294.203827"
"cpu-p-294.203828"
"cpu-p-294.203829"
"cpu-p-294.203830"
"cpu-p-294.203831"
"cpu-p-294.203832"
"cpu-p-294.203833"
"cpu-p-294.203834"
"cpu-p-294.203835"
"cpu-p-294.203836"
"cpu-p-294.203837"
"cpu-p-294.203838"
"cpu-p-294.203839"
"cpu-p-294.203840"
"cpu-p-294.203841"
"cpu-p-294.203842"
"cpu-p-294.203843"
"cpu-p-294.203844"
"cpu-p-294.203845"
"cpu-p-294.203846"
"cpu-p-294.203847"
"cpu-p-294.203848"
"cpu-p-294.203849"
"cpu-p-294.203850"
"cpu-p-294.203851"
"cpu-p-294.203852"
"cpu-p-294.203853"
"cpu-p-294.203854"
"cpu-p-294.203855"
"cpu-p-294.203856"
"cpu-p-294.203857"
"cpu-p-294.203858"
"cpu-p-294.203859"
"cpu-p-294.203860"
"cpu-p-294.203861"
"cpu-p-294.203862"
"cpu-p-294.203863"
"cpu-p-294.203864"
"cpu-p-294.203865"
"cpu-p-294.203866"
"cpu-p-294.203867"
"cpu-p-295.56017"
"cpu-p-295.56018"
"cpu-p-295.56019"
"cpu-p-295.56020"
"cpu-p-295.56021"
"cpu-p-295.56022"
"cpu-p-295.56023"
"cpu-p-295.56024"
"cpu-p-295.56025"
"cpu-p-295.56026"
"cpu-p-295.56027"
"cpu-p-295.56028"
"cpu-p-295.56029"
"cpu-p-295.56030"
"cpu-p-295.56031"
"cpu-p-295.56032"
"cpu-p-295.56033"
"cpu-p-295.56034"
"cpu-p-295.56035"
"cpu-p-295.56036"
"cpu-p-295.56037"
"cpu-p-295.56038"
"cpu-p-295.56039"
"cpu-p-295.56040"
"cpu-p-295.56041"
"cpu-p-295.56042"
"cpu-p-295.56043"
"cpu-p-295.56044"
"cpu-p-295.56045"
"cpu-p-295.56046"
"cpu-p-295.56047"
"cpu-p-295.56048"
"cpu-p-295.56049"
"cpu-p-295.56050"
"cpu-p-295.56051"
"cpu-p-295.56052"
"cpu-p-295.56053"
"cpu-p-295.56054"
"cpu-p-295.56055"
"cpu-p-295.56056"
"cpu-p-295.56057"
"cpu-p-295.56058"
"cpu-p-295.56059"
"cpu-p-295.56060"
"cpu-p-295.56061"
"cpu-p-295.56062"
"cpu-p-295.56063"
"cpu-p-295.56064"
"cpu-p-295.56065"
"cpu-p-295.56066"
"cpu-p-295.56067"
"cpu-p-295.56068"
"cpu-p-295.56069"
"cpu-p-295.56070"
"cpu-p-295.56071"
"cpu-p-295.56072"
)

Pstream initialized with:
    floatTransfer      : 0
    nProcsSimpleSum    : 0
    commsType          : nonBlocking
    polling iterations : 0
sigFpe : Enabling floating point exception trapping (FOAM_SIGFPE).
fileModificationChecking : Monitoring run-time modified files using timeStampMaster (fileModificationSkew 10)
allowSystemOperations : Allowing user-supplied system call operations

// * * * * * * * * * * * * * * * * * * * * * * * * * * * * * * * * * * * * * //
Create time

Create mesh for time = 0


SIMPLE: No convergence criteria found

Reading field p

Reading field U

Reading/calculating face flux field phi

Selecting incompressible transport model Newtonian
Selecting turbulence model type RAS
Selecting RAS turbulence model kOmegaSST
Selecting patchDistMethod meshWave
RAS
{
    RASModel        kOmegaSST;
    turbulence      on;
    printCoeffs     on;
    alphaK1         0.85;
    alphaK2         1;
    alphaOmega1     0.5;
    alphaOmega2     0.856;
    gamma1          0.555556;
    gamma2          0.44;
    beta1           0.075;
    beta2           0.0828;
    betaStar        0.09;
    a1              0.31;
    b1              1;
    c1              10;
    F3              false;
}

No MRF models present

No finite volume options present

Starting time loop

Reading surface description:
    yNormal

forces forceCoeffs1:
    Not including porosity effects
forceCoeffs forceCoeffs1:
    Not including porosity effects
Time = 1

smoothSolver:  Solving for Ux, Initial residual = 1, Final residual = 0.08892, No Iterations 14
smoothSolver:  Solving for Uy, Initial residual = 1, Final residual = 0.0979775, No Iterations 12
smoothSolver:  Solving for Uz, Initial residual = 1, Final residual = 0.0916079, No Iterations 13
GAMG:  Solving for p, Initial residual = 1, Final residual = 0.00950413, No Iterations 6
time step continuity errors : sum local = 0.000672532, global = 3.35212e-06, cumulative = 3.35212e-06
smoothSolver:  Solving for omega, Initial residual = 0.028261, Final residual = 0.00136329, No Iterations 3
bounding omega, min: -1412.32 max: 827223 average: 490.324
smoothSolver:  Solving for k, Initial residual = 1, Final residual = 0.0795845, No Iterations 4
ExecutionTime = 0.44 s  ClockTime = 1 s

forceCoeffs forceCoeffs1 write:
    Cm    = 12.3554
    Cd    = 26.7174
    Cl    = -1.80591
    Cl(f) = 11.4525
    Cl(r) = -13.2584

Time = 2

smoothSolver:  Solving for Ux, Initial residual = 0.107159, Final residual = 0.009117, No Iterations 12
smoothSolver:  Solving for Uy, Initial residual = 0.51647, Final residual = 0.0478477, No Iterations 11
smoothSolver:  Solving for Uz, Initial residual = 0.391791, Final residual = 0.0358844, No Iterations 11
GAMG:  Solving for p, Initial residual = 0.239329, Final residual = 0.00229577, No Iterations 4
time step continuity errors : sum local = 0.00992756, global = 2.42808e-05, cumulative = 2.76329e-05
smoothSolver:  Solving for omega, Initial residual = 0.999999, Final residual = 0.0605697, No Iterations 5
smoothSolver:  Solving for k, Initial residual = 0.963465, Final residual = 5.63904e-08, No Iterations 1
ExecutionTime = 0.52 s  ClockTime = 1 s

forceCoeffs forceCoeffs1 write:
    Cm    = 4.74342
    Cd    = 10.8544
    Cl    = -0.400651
    Cl(f) = 4.5431
    Cl(r) = -4.94375

Time = 3

smoothSolver:  Solving for Ux, Initial residual = 0.133315, Final residual = 0.0108948, No Iterations 5
smoothSolver:  Solving for Uy, Initial residual = 0.565989, Final residual = 0.0435135, No Iterations 6
smoothSolver:  Solving for Uz, Initial residual = 0.630565, Final residual = 0.0499989, No Iterations 5
GAMG:  Solving for p, Initial residual = 0.141654, Final residual = 0.000779272, No Iterations 5
time step continuity errors : sum local = 0.00283728, global = 2.21222e-05, cumulative = 4.97551e-05
smoothSolver:  Solving for omega, Initial residual = 0.538468, Final residual = 1.24774e-12, No Iterations 1
bounding omega, min: -4.97586e+09 max: 6.34624e+15 average: 1.35822e+10
smoothSolver:  Solving for k, Initial residual = 0.114486, Final residual = 6.85052e-08, No Iterations 1
ExecutionTime = 0.59 s  ClockTime = 1 s

forceCoeffs forceCoeffs1 write:
    Cm    = 3.0216
    Cd    = 7.03219
    Cl    = -1.59723
    Cl(f) = 2.22298
    Cl(r) = -3.82021

Time = 4

smoothSolver:  Solving for Ux, Initial residual = 0.0600814, Final residual = 0.00477847, No Iterations 6
smoothSolver:  Solving for Uy, Initial residual = 0.465438, Final residual = 0.0385658, No Iterations 6
smoothSolver:  Solving for Uz, Initial residual = 0.451751, Final residual = 0.0333574, No Iterations 6
GAMG:  Solving for p, Initial residual = 0.0773345, Final residual = 0.000326056, No Iterations 5
time step continuity errors : sum local = 0.00142908, global = 4.97132e-06, cumulative = 5.47264e-05
smoothSolver:  Solving for omega, Initial residual = 0.538468, Final residual = 3.81313e-12, No Iterations 1
bounding omega, min: -1.76855e+07 max: 1.90387e+15 average: 4.07555e+09
smoothSolver:  Solving for k, Initial residual = 0.0269367, Final residual = 1.83683e-07, No Iterations 1
ExecutionTime = 0.66 s  ClockTime = 1 s

forceCoeffs forceCoeffs1 write:
    Cm    = 1.32918
    Cd    = 3.43266
    Cl    = -0.862019
    Cl(f) = 0.898168
    Cl(r) = -1.76019

Time = 5

smoothSolver:  Solving for Ux, Initial residual = 0.0261174, Final residual = 0.00232786, No Iterations 7
smoothSolver:  Solving for Uy, Initial residual = 0.36452, Final residual = 0.029177, No Iterations 7
smoothSolver:  Solving for Uz, Initial residual = 0.30553, Final residual = 0.0300625, No Iterations 6
GAMG:  Solving for p, Initial residual = 0.0615485, Final residual = 0.000511873, No Iterations 4
time step continuity errors : sum local = 0.00241047, global = 7.2682e-06, cumulative = 6.19946e-05
smoothSolver:  Solving for omega, Initial residual = 0.538468, Final residual = 1.16582e-11, No Iterations 1
bounding omega, min: -578008 max: 5.71162e+14 average: 1.22267e+09
smoothSolver:  Solving for k, Initial residual = 0.00693772, Final residual = 5.4033e-07, No Iterations 1
ExecutionTime = 0.72 s  ClockTime = 1 s

forceCoeffs forceCoeffs1 write:
    Cm    = 0.711887
    Cd    = 1.88193
    Cl    = -0.44735
    Cl(f) = 0.488212
    Cl(r) = -0.935562

Time = 6

smoothSolver:  Solving for Ux, Initial residual = 0.0181619, Final residual = 0.00164321, No Iterations 7
smoothSolver:  Solving for Uy, Initial residual = 0.304607, Final residual = 0.026554, No Iterations 7
smoothSolver:  Solving for Uz, Initial residual = 0.246172, Final residual = 0.0192646, No Iterations 7
GAMG:  Solving for p, Initial residual = 0.0534265, Final residual = 0.000400706, No Iterations 4
time step continuity errors : sum local = 0.00183546, global = 1.14348e-05, cumulative = 7.34294e-05
smoothSolver:  Solving for omega, Initial residual = 0.538468, Final residual = 3.178e-11, No Iterations 1
bounding omega, min: -122526 max: 1.71349e+14 average: 3.66804e+08
smoothSolver:  Solving for k, Initial residual = 0.00185979, Final residual = 1.5908e-06, No Iterations 1
ExecutionTime = 0.79 s  ClockTime = 1 s

forceCoeffs forceCoeffs1 write:
    Cm    = 0.457216
    Cd    = 1.17017
    Cl    = -0.171235
    Cl(f) = 0.371599
    Cl(r) = -0.542834

Time = 7

smoothSolver:  Solving for Ux, Initial residual = 0.013754, Final residual = 0.00133443, No Iterations 7
smoothSolver:  Solving for Uy, Initial residual = 0.256775, Final residual = 0.0239985, No Iterations 7
smoothSolver:  Solving for Uz, Initial residual = 0.204621, Final residual = 0.0172234, No Iterations 7
GAMG:  Solving for p, Initial residual = 0.0487751, Final residual = 0.000344932, No Iterations 4
time step continuity errors : sum local = 0.00153301, global = 9.44683e-06, cumulative = 8.28762e-05
smoothSolver:  Solving for omega, Initial residual = 0.538468, Final residual = 9.45818e-11, No Iterations 1
bounding omega, min: -18256.9 max: 5.14046e+13 average: 1.10042e+08
smoothSolver:  Solving for k, Initial residual = 0.000522727, Final residual = 4.88268e-06, No Iterations 1
ExecutionTime = 0.85 s  ClockTime = 1 s

forceCoeffs forceCoeffs1 write:
    Cm    = 0.349007
    Cd    = 0.845722
    Cl    = -0.0645668
    Cl(f) = 0.316723
    Cl(r) = -0.38129

Time = 8

smoothSolver:  Solving for Ux, Initial residual = 0.011463, Final residual = 0.00114479, No Iterations 7
smoothSolver:  Solving for Uy, Initial residual = 0.225954, Final residual = 0.0214671, No Iterations 7
smoothSolver:  Solving for Uz, Initial residual = 0.181943, Final residual = 0.015913, No Iterations 7
GAMG:  Solving for p, Initial residual = 0.0457982, Final residual = 0.000313138, No Iterations 4
time step continuity errors : sum local = 0.00133826, global = 6.04224e-06, cumulative = 8.89184e-05
smoothSolver:  Solving for omega, Initial residual = 0.538468, Final residual = 2.72533e-10, No Iterations 1
bounding omega, min: -777.269 max: 1.54214e+13 average: 3.30138e+07
smoothSolver:  Solving for k, Initial residual = 0.000178239, Final residual = 1.51968e-05, No Iterations 1
ExecutionTime = 0.91 s  ClockTime = 1 s

forceCoeffs forceCoeffs1 write:
    Cm    = 0.306121
    Cd    = 0.698341
    Cl    = -0.0377744
    Cl(f) = 0.287233
    Cl(r) = -0.325008

Time = 9

smoothSolver:  Solving for Ux, Initial residual = 0.00979042, Final residual = 0.000793885, No Iterations 8
smoothSolver:  Solving for Uy, Initial residual = 0.197409, Final residual = 0.0192055, No Iterations 7
smoothSolver:  Solving for Uz, Initial residual = 0.171946, Final residual = 0.0157129, No Iterations 7
GAMG:  Solving for p, Initial residual = 0.043607, Final residual = 0.000284622, No Iterations 4
time step continuity errors : sum local = 0.0011775, global = 5.76112e-06, cumulative = 9.46796e-05
smoothSolver:  Solving for omega, Initial residual = 0.538468, Final residual = 7.14736e-10, No Iterations 1
smoothSolver:  Solving for k, Initial residual = 0.000150079, Final residual = 1.11525e-05, No Iterations 3
ExecutionTime = 0.97 s  ClockTime = 1 s

forceCoeffs forceCoeffs1 write:
    Cm    = 0.284786
    Cd    = 0.624738
    Cl    = -0.0467576
    Cl(f) = 0.261407
    Cl(r) = -0.308165

Time = 10

smoothSolver:  Solving for Ux, Initial residual = 0.00864456, Final residual = 0.000723342, No Iterations 8
smoothSolver:  Solving for Uy, Initial residual = 0.179241, Final residual = 0.0138932, No Iterations 8
smoothSolver:  Solving for Uz, Initial residual = 0.166562, Final residual = 0.0158987, No Iterations 7
GAMG:  Solving for p, Initial residual = 0.0418309, Final residual = 0.000270042, No Iterations 4
time step continuity errors : sum local = 0.0010841, global = 1.90653e-06, cumulative = 9.65861e-05
smoothSolver:  Solving for omega, Initial residual = 0.538468, Final residual = 2.30959e-09, No Iterations 1
smoothSolver:  Solving for k, Initial residual = 0.000344779, Final residual = 3.34104e-05, No Iterations 3
ExecutionTime = 1.03 s  ClockTime = 1 s

forceCoeffs forceCoeffs1 write:
    Cm    = 0.259369
    Cd    = 0.561993
    Cl    = -0.0390288
    Cl(f) = 0.239854
    Cl(r) = -0.278883

Time = 11

smoothSolver:  Solving for Ux, Initial residual = 0.00772512, Final residual = 0.000677051, No Iterations 8
smoothSolver:  Solving for Uy, Initial residual = 0.163747, Final residual = 0.0131556, No Iterations 8
smoothSolver:  Solving for Uz, Initial residual = 0.164053, Final residual = 0.0129067, No Iterations 8
GAMG:  Solving for p, Initial residual = 0.0403703, Final residual = 0.00026536, No Iterations 4
time step continuity errors : sum local = 0.00103762, global = -5.10215e-06, cumulative = 9.1484e-05
smoothSolver:  Solving for omega, Initial residual = 0.538467, Final residual = 8.39691e-09, No Iterations 1
smoothSolver:  Solving for k, Initial residual = 0.000955094, Final residual = 9.33126e-05, No Iterations 3
ExecutionTime = 1.09 s  ClockTime = 1 s

forceCoeffs forceCoeffs1 write:
    Cm    = 0.243585
    Cd    = 0.529439
    Cl    = -0.0435071
    Cl(f) = 0.221832
    Cl(r) = -0.265339

Time = 12

smoothSolver:  Solving for Ux, Initial residual = 0.00714642, Final residual = 0.00065205, No Iterations 8
smoothSolver:  Solving for Uy, Initial residual = 0.151506, Final residual = 0.0127827, No Iterations 8
smoothSolver:  Solving for Uz, Initial residual = 0.161113, Final residual = 0.0131717, No Iterations 8
GAMG:  Solving for p, Initial residual = 0.0390821, Final residual = 0.000258251, No Iterations 4
time step continuity errors : sum local = 0.000978578, global = -5.90939e-06, cumulative = 8.55746e-05
smoothSolver:  Solving for omega, Initial residual = 0.538466, Final residual = 2.66609e-08, No Iterations 1
smoothSolver:  Solving for k, Initial residual = 0.0022184, Final residual = 0.000215926, No Iterations 3
bounding k, min: -1.96921e-07 max: 210.754 average: 0.554662
ExecutionTime = 1.16 s  ClockTime = 1 s

forceCoeffs forceCoeffs1 write:
    Cm    = 0.228507
    Cd    = 0.502325
    Cl    = -0.0339755
    Cl(f) = 0.211519
    Cl(r) = -0.245495

Time = 13

smoothSolver:  Solving for Ux, Initial residual = 0.00665869, Final residual = 0.000639527, No Iterations 8
smoothSolver:  Solving for Uy, Initial residual = 0.140306, Final residual = 0.0124288, No Iterations 8
smoothSolver:  Solving for Uz, Initial residual = 0.154691, Final residual = 0.0131981, No Iterations 8
GAMG:  Solving for p, Initial residual = 0.0383083, Final residual = 0.000253333, No Iterations 4
time step continuity errors : sum local = 0.000924628, global = -4.27677e-06, cumulative = 8.12978e-05
smoothSolver:  Solving for omega, Initial residual = 0.53846, Final residual = 7.94007e-08, No Iterations 1
bounding omega, min: -3103.82 max: 3.74739e+10 average: 81492.7
smoothSolver:  Solving for k, Initial residual = 0.00384631, Final residual = 0.000367647, No Iterations 3
bounding k, min: -1.27394e-05 max: 191.446 average: 0.571709
ExecutionTime = 1.22 s  ClockTime = 1 s

forceCoeffs forceCoeffs1 write:
    Cm    = 0.215436
    Cd    = 0.479956
    Cl    = -0.0194695
    Cl(f) = 0.205701
    Cl(r) = -0.225171

Time = 14

smoothSolver:  Solving for Ux, Initial residual = 0.00631477, Final residual = 0.000629182, No Iterations 8
smoothSolver:  Solving for Uy, Initial residual = 0.131551, Final residual = 0.0120617, No Iterations 8
smoothSolver:  Solving for Uz, Initial residual = 0.146971, Final residual = 0.013005, No Iterations 8
GAMG:  Solving for p, Initial residual = 0.0377251, Final residual = 0.000252859, No Iterations 4
time step continuity errors : sum local = 0.000883054, global = -3.67489e-06, cumulative = 7.76229e-05
smoothSolver:  Solving for omega, Initial residual = 0.538442, Final residual = 2.57813e-07, No Iterations 1
smoothSolver:  Solving for k, Initial residual = 0.0048408, Final residual = 0.000473525, No Iterations 3
bounding k, min: -3.4698e-07 max: 378.701 average: 0.585619
ExecutionTime = 1.29 s  ClockTime = 2 s

forceCoeffs forceCoeffs1 write:
    Cm    = 0.201557
    Cd    = 0.463007
    Cl    = -0.0047311
    Cl(f) = 0.199192
    Cl(r) = -0.203923

Time = 15

smoothSolver:  Solving for Ux, Initial residual = 0.00598999, Final residual = 0.000490816, No Iterations 9
smoothSolver:  Solving for Uy, Initial residual = 0.122861, Final residual = 0.0117086, No Iterations 8
smoothSolver:  Solving for Uz, Initial residual = 0.138126, Final residual = 0.012771, No Iterations 8
GAMG:  Solving for p, Initial residual = 0.0373237, Final residual = 0.000249962, No Iterations 4
time step continuity errors : sum local = 0.000834552, global = -2.82891e-06, cumulative = 7.4794e-05
smoothSolver:  Solving for omega, Initial residual = 0.53838, Final residual = 9.60536e-07, No Iterations 1
smoothSolver:  Solving for k, Initial residual = 0.00538067, Final residual = 0.000529152, No Iterations 3
bounding k, min: -2.71813e-08 max: 428.095 average: 0.598737
ExecutionTime = 1.36 s  ClockTime = 2 s

forceCoeffs forceCoeffs1 write:
    Cm    = 0.191864
    Cd    = 0.455884
    Cl    = 0.00977829
    Cl(f) = 0.196753
    Cl(r) = -0.186974

Time = 16

smoothSolver:  Solving for Ux, Initial residual = 0.00580949, Final residual = 0.000485617, No Iterations 9
smoothSolver:  Solving for Uy, Initial residual = 0.116546, Final residual = 0.0115671, No Iterations 8
smoothSolver:  Solving for Uz, Initial residual = 0.131583, Final residual = 0.012665, No Iterations 8
GAMG:  Solving for p, Initial residual = 0.0369959, Final residual = 0.000249166, No Iterations 4
time step continuity errors : sum local = 0.000792846, global = -2.60949e-06, cumulative = 7.21845e-05
smoothSolver:  Solving for omega, Initial residual = 0.538143, Final residual = 3.78667e-06, No Iterations 1
smoothSolver:  Solving for k, Initial residual = 0.0055053, Final residual = 0.000273573, No Iterations 4
bounding k, min: -3.55828e-08 max: 951.843 average: 0.60987
ExecutionTime = 1.42 s  ClockTime = 2 s

forceCoeffs forceCoeffs1 write:
    Cm    = 0.182324
    Cd    = 0.447138
    Cl    = 0.026383
    Cl(f) = 0.195516
    Cl(r) = -0.169133

Time = 17

smoothSolver:  Solving for Ux, Initial residual = 0.00558495, Final residual = 0.00048448, No Iterations 9
smoothSolver:  Solving for Uy, Initial residual = 0.109391, Final residual = 0.00895918, No Iterations 9
smoothSolver:  Solving for Uz, Initial residual = 0.126526, Final residual = 0.0101305, No Iterations 9
GAMG:  Solving for p, Initial residual = 0.0366925, Final residual = 0.000248513, No Iterations 4
time step continuity errors : sum local = 0.000755018, global = -2.45461e-06, cumulative = 6.97299e-05
smoothSolver:  Solving for omega, Initial residual = 0.537055, Final residual = 1.37359e-05, No Iterations 1
bounding omega, min: -491.322 max: 3.03539e+08 average: 1780.08
smoothSolver:  Solving for k, Initial residual = 0.00576571, Final residual = 0.000567778, No Iterations 3
ExecutionTime = 1.49 s  ClockTime = 2 s

forceCoeffs forceCoeffs1 write:
    Cm    = 0.176529
    Cd    = 0.448796
    Cl    = 0.0347387
    Cl(f) = 0.193899
    Cl(r) = -0.15916

Time = 18

smoothSolver:  Solving for Ux, Initial residual = 0.00541809, Final residual = 0.000483309, No Iterations 9
smoothSolver:  Solving for Uy, Initial residual = 0.104254, Final residual = 0.00873626, No Iterations 9
smoothSolver:  Solving for Uz, Initial residual = 0.122917, Final residual = 0.0102116, No Iterations 9
GAMG:  Solving for p, Initial residual = 0.0364442, Final residual = 0.000242987, No Iterations 4
time step continuity errors : sum local = 0.000704724, global = -1.13537e-06, cumulative = 6.85945e-05
smoothSolver:  Solving for omega, Initial residual = 0.530248, Final residual = 4.89128e-05, No Iterations 1
bounding omega, min: -81.8764 max: 9.10617e+07 average: 1298.55
smoothSolver:  Solving for k, Initial residual = 0.00569925, Final residual = 0.000288885, No Iterations 4
ExecutionTime = 1.56 s  ClockTime = 2 s

forceCoeffs forceCoeffs1 write:
    Cm    = 0.170055
    Cd    = 0.441915
    Cl    = 0.0329139
    Cl(f) = 0.186512
    Cl(r) = -0.153598

Time = 19

smoothSolver:  Solving for Ux, Initial residual = 0.00524391, Final residual = 0.000480195, No Iterations 9
smoothSolver:  Solving for Uy, Initial residual = 0.100092, Final residual = 0.00861238, No Iterations 9
smoothSolver:  Solving for Uz, Initial residual = 0.11959, Final residual = 0.010297, No Iterations 9
GAMG:  Solving for p, Initial residual = 0.0359878, Final residual = 0.000254342, No Iterations 4
time step continuity errors : sum local = 0.000704923, global = -1.01102e-06, cumulative = 6.75835e-05
smoothSolver:  Solving for omega, Initial residual = 0.47876, Final residual = 0.00017018, No Iterations 1
smoothSolver:  Solving for k, Initial residual = 0.00568908, Final residual = 0.000301602, No Iterations 4
ExecutionTime = 1.66 s  ClockTime = 2 s

forceCoeffs forceCoeffs1 write:
    Cm    = 0.165313
    Cd    = 0.436341
    Cl    = 0.0301533
    Cl(f) = 0.180389
    Cl(r) = -0.150236

Time = 20

smoothSolver:  Solving for Ux, Initial residual = 0.00502808, Final residual = 0.000475018, No Iterations 9
smoothSolver:  Solving for Uy, Initial residual = 0.0960928, Final residual = 0.00851546, No Iterations 9
smoothSolver:  Solving for Uz, Initial residual = 0.115893, Final residual = 0.0103164, No Iterations 9
GAMG:  Solving for p, Initial residual = 0.0353572, Final residual = 0.000266445, No Iterations 4
time step continuity errors : sum local = 0.000710785, global = -7.63788e-07, cumulative = 6.68197e-05
smoothSolver:  Solving for omega, Initial residual = 0.24414, Final residual = 0.000403892, No Iterations 1
smoothSolver:  Solving for k, Initial residual = 0.00576137, Final residual = 0.00031435, No Iterations 4
ExecutionTime = 1.72 s  ClockTime = 2 s

forceCoeffs forceCoeffs1 write:
    Cm    = 0.162561
    Cd    = 0.430158
    Cl    = 0.0258902
    Cl(f) = 0.175506
    Cl(r) = -0.149615

Time = 21

smoothSolver:  Solving for Ux, Initial residual = 0.00482424, Final residual = 0.000469981, No Iterations 9
smoothSolver:  Solving for Uy, Initial residual = 0.0927721, Final residual = 0.00844813, No Iterations 9
smoothSolver:  Solving for Uz, Initial residual = 0.112186, Final residual = 0.010259, No Iterations 9
GAMG:  Solving for p, Initial residual = 0.0345978, Final residual = 0.000266761, No Iterations 4
time step continuity errors : sum local = 0.000688118, global = -3.08359e-07, cumulative = 6.65114e-05
smoothSolver:  Solving for omega, Initial residual = 0.0404506, Final residual = 0.000419601, No Iterations 1
smoothSolver:  Solving for k, Initial residual = 0.00587889, Final residual = 0.000329635, No Iterations 4
ExecutionTime = 1.79 s  ClockTime = 2 s

forceCoeffs forceCoeffs1 write:
    Cm    = 0.162326
    Cd    = 0.426812
    Cl    = 0.0218324
    Cl(f) = 0.173242
    Cl(r) = -0.151409

Time = 22

smoothSolver:  Solving for Ux, Initial residual = 0.00464947, Final residual = 0.000372234, No Iterations 10
smoothSolver:  Solving for Uy, Initial residual = 0.0899202, Final residual = 0.0084306, No Iterations 9
smoothSolver:  Solving for Uz, Initial residual = 0.108426, Final residual = 0.0101486, No Iterations 9
GAMG:  Solving for p, Initial residual = 0.0336504, Final residual = 0.000260623, No Iterations 4
time step continuity errors : sum local = 0.000654347, global = 2.3767e-07, cumulative = 6.6749e-05
smoothSolver:  Solving for omega, Initial residual = 0.00487352, Final residual = 0.000359495, No Iterations 1
smoothSolver:  Solving for k, Initial residual = 0.00599408, Final residual = 0.000341879, No Iterations 4
ExecutionTime = 1.85 s  ClockTime = 2 s

forceCoeffs forceCoeffs1 write:
    Cm    = 0.164189
    Cd    = 0.425376
    Cl    = 0.0162105
    Cl(f) = 0.172294
    Cl(r) = -0.156084

Time = 23

smoothSolver:  Solving for Ux, Initial residual = 0.00448818, Final residual = 0.000367266, No Iterations 10
smoothSolver:  Solving for Uy, Initial residual = 0.087556, Final residual = 0.00843448, No Iterations 9
smoothSolver:  Solving for Uz, Initial residual = 0.102435, Final residual = 0.00983952, No Iterations 9
GAMG:  Solving for p, Initial residual = 0.0326908, Final residual = 0.000249277, No Iterations 4
time step continuity errors : sum local = 0.00061017, global = 2.19916e-07, cumulative = 6.69689e-05
smoothSolver:  Solving for omega, Initial residual = 0.00119293, Final residual = 6.62639e-05, No Iterations 3
smoothSolver:  Solving for k, Initial residual = 0.00597319, Final residual = 0.000346201, No Iterations 4
ExecutionTime = 1.92 s  ClockTime = 2 s

forceCoeffs forceCoeffs1 write:
    Cm    = 0.166398
    Cd    = 0.424918
    Cl    = 0.0106689
    Cl(f) = 0.171732
    Cl(r) = -0.161063

Time = 24

smoothSolver:  Solving for Ux, Initial residual = 0.00432525, Final residual = 0.000362497, No Iterations 10
smoothSolver:  Solving for Uy, Initial residual = 0.0851512, Final residual = 0.00838167, No Iterations 9
smoothSolver:  Solving for Uz, Initial residual = 0.0956623, Final residual = 0.00944417, No Iterations 9
GAMG:  Solving for p, Initial residual = 0.0317432, Final residual = 0.000234239, No Iterations 4
time step continuity errors : sum local = 0.000560771, global = -1.23999e-06, cumulative = 6.5729e-05
smoothSolver:  Solving for omega, Initial residual = 0.00068787, Final residual = 5.82907e-05, No Iterations 3
smoothSolver:  Solving for k, Initial residual = 0.00595198, Final residual = 0.00034624, No Iterations 4
ExecutionTime = 1.98 s  ClockTime = 2 s

forceCoeffs forceCoeffs1 write:
    Cm    = 0.168795
    Cd    = 0.424336
    Cl    = 0.00732026
    Cl(f) = 0.172455
    Cl(r) = -0.165135

Time = 25

smoothSolver:  Solving for Ux, Initial residual = 0.00419771, Final residual = 0.000357665, No Iterations 10
smoothSolver:  Solving for Uy, Initial residual = 0.0827801, Final residual = 0.00660751, No Iterations 10
smoothSolver:  Solving for Uz, Initial residual = 0.0891573, Final residual = 0.00723041, No Iterations 10
GAMG:  Solving for p, Initial residual = 0.0308135, Final residual = 0.00023064, No Iterations 4
time step continuity errors : sum local = 0.000539015, global = -2.79828e-06, cumulative = 6.29307e-05
smoothSolver:  Solving for omega, Initial residual = 0.000592265, Final residual = 5.30155e-05, No Iterations 3
smoothSolver:  Solving for k, Initial residual = 0.00601421, Final residual = 0.000353914, No Iterations 4
ExecutionTime = 2.05 s  ClockTime = 2 s

forceCoeffs forceCoeffs1 write:
    Cm    = 0.169986
    Cd    = 0.420501
    Cl    = 0.00686032
    Cl(f) = 0.173416
    Cl(r) = -0.166555

Time = 26

smoothSolver:  Solving for Ux, Initial residual = 0.00407333, Final residual = 0.000352085, No Iterations 10
smoothSolver:  Solving for Uy, Initial residual = 0.0803613, Final residual = 0.00649992, No Iterations 10
smoothSolver:  Solving for Uz, Initial residual = 0.0830419, Final residual = 0.00686677, No Iterations 10
GAMG:  Solving for p, Initial residual = 0.0298164, Final residual = 0.000227409, No Iterations 4
time step continuity errors : sum local = 0.000517809, global = -4.56906e-06, cumulative = 5.83616e-05
smoothSolver:  Solving for omega, Initial residual = 0.000537088, Final residual = 4.89908e-05, No Iterations 3
smoothSolver:  Solving for k, Initial residual = 0.00593956, Final residual = 0.000355202, No Iterations 4
ExecutionTime = 2.11 s  ClockTime = 2 s

forceCoeffs forceCoeffs1 write:
    Cm    = 0.170954
    Cd    = 0.418222
    Cl    = 0.00809309
    Cl(f) = 0.175001
    Cl(r) = -0.166908

Time = 27

smoothSolver:  Solving for Ux, Initial residual = 0.00392969, Final residual = 0.000344474, No Iterations 10
smoothSolver:  Solving for Uy, Initial residual = 0.0783653, Final residual = 0.00645252, No Iterations 10
smoothSolver:  Solving for Uz, Initial residual = 0.077664, Final residual = 0.00655341, No Iterations 10
GAMG:  Solving for p, Initial residual = 0.0290399, Final residual = 0.000224091, No Iterations 4
time step continuity errors : sum local = 0.000496687, global = -6.44241e-06, cumulative = 5.19192e-05
smoothSolver:  Solving for omega, Initial residual = 0.00050145, Final residual = 4.60468e-05, No Iterations 3
smoothSolver:  Solving for k, Initial residual = 0.00584087, Final residual = 0.000353048, No Iterations 4
ExecutionTime = 2.18 s  ClockTime = 2 s

forceCoeffs forceCoeffs1 write:
    Cm    = 0.170353
    Cd    = 0.413902
    Cl    = 0.0113306
    Cl(f) = 0.176018
    Cl(r) = -0.164687

Time = 28

smoothSolver:  Solving for Ux, Initial residual = 0.00378823, Final residual = 0.000336399, No Iterations 10
smoothSolver:  Solving for Uy, Initial residual = 0.0772879, Final residual = 0.00648187, No Iterations 10
smoothSolver:  Solving for Uz, Initial residual = 0.0730718, Final residual = 0.00627826, No Iterations 10
GAMG:  Solving for p, Initial residual = 0.0284033, Final residual = 0.000222109, No Iterations 4
time step continuity errors : sum local = 0.000478335, global = -7.87782e-06, cumulative = 4.40414e-05
smoothSolver:  Solving for omega, Initial residual = 0.000474001, Final residual = 4.38574e-05, No Iterations 3
smoothSolver:  Solving for k, Initial residual = 0.00572101, Final residual = 0.000348917, No Iterations 4
ExecutionTime = 2.25 s  ClockTime = 3 s

forceCoeffs forceCoeffs1 write:
    Cm    = 0.169754
    Cd    = 0.411575
    Cl    = 0.0160155
    Cl(f) = 0.177761
    Cl(r) = -0.161746

Time = 29

smoothSolver:  Solving for Ux, Initial residual = 0.00364721, Final residual = 0.000327206, No Iterations 10
smoothSolver:  Solving for Uy, Initial residual = 0.0769917, Final residual = 0.00657793, No Iterations 10
smoothSolver:  Solving for Uz, Initial residual = 0.0693418, Final residual = 0.00606816, No Iterations 10
GAMG:  Solving for p, Initial residual = 0.0278344, Final residual = 0.000217519, No Iterations 4
time step continuity errors : sum local = 0.000455853, global = -9.593e-06, cumulative = 3.44484e-05
smoothSolver:  Solving for omega, Initial residual = 0.00046434, Final residual = 4.22324e-05, No Iterations 3
smoothSolver:  Solving for k, Initial residual = 0.00560791, Final residual = 0.000344344, No Iterations 4
ExecutionTime = 2.32 s  ClockTime = 3 s

forceCoeffs forceCoeffs1 write:
    Cm    = 0.169151
    Cd    = 0.408594
    Cl    = 0.0217787
    Cl(f) = 0.18004
    Cl(r) = -0.158262

Time = 30

smoothSolver:  Solving for Ux, Initial residual = 0.00352906, Final residual = 0.000318472, No Iterations 10
smoothSolver:  Solving for Uy, Initial residual = 0.0771467, Final residual = 0.00668037, No Iterations 10
smoothSolver:  Solving for Uz, Initial residual = 0.066488, Final residual = 0.00588893, No Iterations 10
GAMG:  Solving for p, Initial residual = 0.02721, Final residual = 0.000212509, No Iterations 4
time step continuity errors : sum local = 0.000433495, global = -1.00967e-05, cumulative = 2.43517e-05
smoothSolver:  Solving for omega, Initial residual = 0.000461002, Final residual = 4.09326e-05, No Iterations 3
smoothSolver:  Solving for k, Initial residual = 0.00546932, Final residual = 0.000338443, No Iterations 4
ExecutionTime = 2.39 s  ClockTime = 3 s

forceCoeffs forceCoeffs1 write:
    Cm    = 0.169936
    Cd    = 0.408758
    Cl    = 0.0273346
    Cl(f) = 0.183603
    Cl(r) = -0.156268

Time = 31

smoothSolver:  Solving for Ux, Initial residual = 0.00340528, Final residual = 0.000309808, No Iterations 10
smoothSolver:  Solving for Uy, Initial residual = 0.0766662, Final residual = 0.00674521, No Iterations 10
smoothSolver:  Solving for Uz, Initial residual = 0.0639604, Final residual = 0.00569679, No Iterations 10
GAMG:  Solving for p, Initial residual = 0.026738, Final residual = 0.00020778, No Iterations 4
time step continuity errors : sum local = 0.000412748, global = -9.53279e-06, cumulative = 1.48189e-05
smoothSolver:  Solving for omega, Initial residual = 0.000423086, Final residual = 3.96118e-05, No Iterations 3
smoothSolver:  Solving for k, Initial residual = 0.00534199, Final residual = 0.000332658, No Iterations 4
ExecutionTime = 2.46 s  ClockTime = 3 s

forceCoeffs forceCoeffs1 write:
    Cm    = 0.170532
    Cd    = 0.407754
    Cl    = 0.0332578
    Cl(f) = 0.187161
    Cl(r) = -0.153903

Time = 32

smoothSolver:  Solving for Ux, Initial residual = 0.00329564, Final residual = 0.000300955, No Iterations 10
smoothSolver:  Solving for Uy, Initial residual = 0.0754522, Final residual = 0.00672637, No Iterations 10
smoothSolver:  Solving for Uz, Initial residual = 0.0614729, Final residual = 0.00548079, No Iterations 10
GAMG:  Solving for p, Initial residual = 0.0263143, Final residual = 0.000206009, No Iterations 4
time step continuity errors : sum local = 0.00039829, global = -8.85749e-06, cumulative = 5.96138e-06
smoothSolver:  Solving for omega, Initial residual = 0.000405359, Final residual = 3.82624e-05, No Iterations 3
smoothSolver:  Solving for k, Initial residual = 0.00522839, Final residual = 0.000328851, No Iterations 4
ExecutionTime = 2.53 s  ClockTime = 3 s

forceCoeffs forceCoeffs1 write:
    Cm    = 0.17128
    Cd    = 0.407524
    Cl    = 0.0382844
    Cl(f) = 0.190423
    Cl(r) = -0.152138

Time = 33

smoothSolver:  Solving for Ux, Initial residual = 0.00317782, Final residual = 0.000290947, No Iterations 10
smoothSolver:  Solving for Uy, Initial residual = 0.07332, Final residual = 0.00659782, No Iterations 10
smoothSolver:  Solving for Uz, Initial residual = 0.0585943, Final residual = 0.00523195, No Iterations 10
GAMG:  Solving for p, Initial residual = 0.025866, Final residual = 0.000204913, No Iterations 4
time step continuity errors : sum local = 0.000385954, global = -8.02284e-06, cumulative = -2.06146e-06
smoothSolver:  Solving for omega, Initial residual = 0.000398253, Final residual = 3.69877e-05, No Iterations 3
smoothSolver:  Solving for k, Initial residual = 0.0051206, Final residual = 0.000324623, No Iterations 4
ExecutionTime = 2.59 s  ClockTime = 3 s

forceCoeffs forceCoeffs1 write:
    Cm    = 0.171243
    Cd    = 0.406012
    Cl    = 0.0422097
    Cl(f) = 0.192348
    Cl(r) = -0.150138

Time = 34

smoothSolver:  Solving for Ux, Initial residual = 0.00306482, Final residual = 0.000280533, No Iterations 10
smoothSolver:  Solving for Uy, Initial residual = 0.0707637, Final residual = 0.00639213, No Iterations 10
smoothSolver:  Solving for Uz, Initial residual = 0.0555552, Final residual = 0.00493852, No Iterations 10
GAMG:  Solving for p, Initial residual = 0.0253514, Final residual = 0.000200453, No Iterations 4
time step continuity errors : sum local = 0.000368693, global = -6.73318e-06, cumulative = -8.79464e-06
smoothSolver:  Solving for omega, Initial residual = 0.000374336, Final residual = 3.58713e-05, No Iterations 3
smoothSolver:  Solving for k, Initial residual = 0.00502364, Final residual = 0.000319513, No Iterations 4
ExecutionTime = 2.66 s  ClockTime = 3 s

forceCoeffs forceCoeffs1 write:
    Cm    = 0.170823
    Cd    = 0.404686
    Cl    = 0.0454577
    Cl(f) = 0.193551
    Cl(r) = -0.148094

Time = 35

smoothSolver:  Solving for Ux, Initial residual = 0.00295492, Final residual = 0.0002717, No Iterations 10
smoothSolver:  Solving for Uy, Initial residual = 0.0676306, Final residual = 0.00612544, No Iterations 10
smoothSolver:  Solving for Uz, Initial residual = 0.0525118, Final residual = 0.00467013, No Iterations 10
GAMG:  Solving for p, Initial residual = 0.0247162, Final residual = 0.000192026, No Iterations 4
time step continuity errors : sum local = 0.000345546, global = -5.55433e-06, cumulative = -1.4349e-05
smoothSolver:  Solving for omega, Initial residual = 0.000358606, Final residual = 3.47966e-05, No Iterations 3
smoothSolver:  Solving for k, Initial residual = 0.00490432, Final residual = 0.000312339, No Iterations 4
ExecutionTime = 2.73 s  ClockTime = 3 s

forceCoeffs forceCoeffs1 write:
    Cm    = 0.169352
    Cd    = 0.401845
    Cl    = 0.0492283
    Cl(f) = 0.193966
    Cl(r) = -0.144738

Time = 36

smoothSolver:  Solving for Ux, Initial residual = 0.00285448, Final residual = 0.000265047, No Iterations 10
smoothSolver:  Solving for Uy, Initial residual = 0.0645207, Final residual = 0.00586795, No Iterations 10
smoothSolver:  Solving for Uz, Initial residual = 0.0495038, Final residual = 0.00443425, No Iterations 10
GAMG:  Solving for p, Initial residual = 0.0239811, Final residual = 0.000184548, No Iterations 4
time step continuity errors : sum local = 0.000325849, global = -4.72508e-06, cumulative = -1.9074e-05
smoothSolver:  Solving for omega, Initial residual = 0.000345097, Final residual = 3.37136e-05, No Iterations 3
bounding omega, min: -483.111 max: 827223 average: 912.793
smoothSolver:  Solving for k, Initial residual = 0.00479638, Final residual = 0.000303109, No Iterations 4
ExecutionTime = 2.8 s  ClockTime = 3 s

forceCoeffs forceCoeffs1 write:
    Cm    = 0.168044
    Cd    = 0.400081
    Cl    = 0.0522756
    Cl(f) = 0.194182
    Cl(r) = -0.141907

Time = 37

smoothSolver:  Solving for Ux, Initial residual = 0.00276566, Final residual = 0.000259573, No Iterations 10
smoothSolver:  Solving for Uy, Initial residual = 0.0617299, Final residual = 0.00566755, No Iterations 10
smoothSolver:  Solving for Uz, Initial residual = 0.046914, Final residual = 0.00425175, No Iterations 10
GAMG:  Solving for p, Initial residual = 0.0232539, Final residual = 0.000180152, No Iterations 4
time step continuity errors : sum local = 0.000312837, global = -4.70725e-06, cumulative = -2.37813e-05
smoothSolver:  Solving for omega, Initial residual = 0.000335329, Final residual = 3.26446e-05, No Iterations 3
bounding omega, min: -2062.63 max: 827223 average: 910.83
smoothSolver:  Solving for k, Initial residual = 0.00469172, Final residual = 0.0002943, No Iterations 4
ExecutionTime = 2.86 s  ClockTime = 3 s

forceCoeffs forceCoeffs1 write:
    Cm    = 0.165379
    Cd    = 0.396836
    Cl    = 0.0559375
    Cl(f) = 0.193348
    Cl(r) = -0.137411

Time = 38

smoothSolver:  Solving for Ux, Initial residual = 0.0026751, Final residual = 0.000255452, No Iterations 10
smoothSolver:  Solving for Uy, Initial residual = 0.0595269, Final residual = 0.00555319, No Iterations 10
smoothSolver:  Solving for Uz, Initial residual = 0.0443988, Final residual = 0.00409405, No Iterations 10
GAMG:  Solving for p, Initial residual = 0.0223963, Final residual = 0.000175017, No Iterations 4
time step continuity errors : sum local = 0.000299666, global = -4.7324e-06, cumulative = -2.85137e-05
smoothSolver:  Solving for omega, Initial residual = 0.000319657, Final residual = 3.15358e-05, No Iterations 3
bounding omega, min: -317.377 max: 827223 average: 909.909
smoothSolver:  Solving for k, Initial residual = 0.0045793, Final residual = 0.000286597, No Iterations 4
ExecutionTime = 2.93 s  ClockTime = 3 s

forceCoeffs forceCoeffs1 write:
    Cm    = 0.163848
    Cd    = 0.394942
    Cl    = 0.0568912
    Cl(f) = 0.192294
    Cl(r) = -0.135403

Time = 39

smoothSolver:  Solving for Ux, Initial residual = 0.00258602, Final residual = 0.000251928, No Iterations 10
smoothSolver:  Solving for Uy, Initial residual = 0.0574426, Final residual = 0.0054504, No Iterations 10
smoothSolver:  Solving for Uz, Initial residual = 0.0423698, Final residual = 0.00396564, No Iterations 10
GAMG:  Solving for p, Initial residual = 0.0214462, Final residual = 0.000165791, No Iterations 4
time step continuity errors : sum local = 0.000280481, global = -4.56141e-06, cumulative = -3.30751e-05
smoothSolver:  Solving for omega, Initial residual = 0.000306753, Final residual = 3.05284e-05, No Iterations 3
bounding omega, min: -90.0712 max: 827223 average: 908.683
smoothSolver:  Solving for k, Initial residual = 0.0044366, Final residual = 0.000279161, No Iterations 4
ExecutionTime = 3 s  ClockTime = 3 s

forceCoeffs forceCoeffs1 write:
    Cm    = 0.161703
    Cd    = 0.392526
    Cl    = 0.0583422
    Cl(f) = 0.190874
    Cl(r) = -0.132532

Time = 40

smoothSolver:  Solving for Ux, Initial residual = 0.00250381, Final residual = 0.00024762, No Iterations 10
smoothSolver:  Solving for Uy, Initial residual = 0.0555163, Final residual = 0.00535086, No Iterations 10
smoothSolver:  Solving for Uz, Initial residual = 0.0406166, Final residual = 0.00384804, No Iterations 10
GAMG:  Solving for p, Initial residual = 0.0205337, Final residual = 0.000154736, No Iterations 4
time step continuity errors : sum local = 0.00025903, global = -4.27412e-06, cumulative = -3.73492e-05
smoothSolver:  Solving for omega, Initial residual = 0.000296784, Final residual = 1.46571e-05, No Iterations 4
bounding omega, min: -61.0041 max: 827223 average: 908.553
smoothSolver:  Solving for k, Initial residual = 0.00429995, Final residual = 0.000271842, No Iterations 4
ExecutionTime = 3.1 s  ClockTime = 3 s

forceCoeffs forceCoeffs1 write:
    Cm    = 0.160736
    Cd    = 0.391824
    Cl    = 0.0589128
    Cl(f) = 0.190192
    Cl(r) = -0.131279

Time = 41

smoothSolver:  Solving for Ux, Initial residual = 0.00242924, Final residual = 0.000242197, No Iterations 10
smoothSolver:  Solving for Uy, Initial residual = 0.05375, Final residual = 0.00523881, No Iterations 10
smoothSolver:  Solving for Uz, Initial residual = 0.0392194, Final residual = 0.00374072, No Iterations 10
GAMG:  Solving for p, Initial residual = 0.0198184, Final residual = 0.000146599, No Iterations 4
time step continuity errors : sum local = 0.000243078, global = -3.86332e-06, cumulative = -4.12125e-05
smoothSolver:  Solving for omega, Initial residual = 0.000288024, Final residual = 2.85378e-05, No Iterations 3
smoothSolver:  Solving for k, Initial residual = 0.00415178, Final residual = 0.000264876, No Iterations 4
ExecutionTime = 3.16 s  ClockTime = 3 s

forceCoeffs forceCoeffs1 write:
    Cm    = 0.159177
    Cd    = 0.391106
    Cl    = 0.060599
    Cl(f) = 0.189477
    Cl(r) = -0.128878

Time = 42

smoothSolver:  Solving for Ux, Initial residual = 0.00235867, Final residual = 0.000190292, No Iterations 11
smoothSolver:  Solving for Uy, Initial residual = 0.052158, Final residual = 0.00511515, No Iterations 10
smoothSolver:  Solving for Uz, Initial residual = 0.0378445, Final residual = 0.00361465, No Iterations 10
GAMG:  Solving for p, Initial residual = 0.0193805, Final residual = 0.000141385, No Iterations 4
time step continuity errors : sum local = 0.000232393, global = -3.71533e-06, cumulative = -4.49279e-05
smoothSolver:  Solving for omega, Initial residual = 0.000271884, Final residual = 1.37356e-05, No Iterations 4
bounding omega, min: -283.602 max: 827223 average: 909.16
smoothSolver:  Solving for k, Initial residual = 0.00400627, Final residual = 0.000258332, No Iterations 4
ExecutionTime = 3.23 s  ClockTime = 4 s

forceCoeffs forceCoeffs1 write:
    Cm    = 0.158361
    Cd    = 0.391683
    Cl    = 0.0617582
    Cl(f) = 0.18924
    Cl(r) = -0.127482

Time = 43

smoothSolver:  Solving for Ux, Initial residual = 0.00228507, Final residual = 0.000184443, No Iterations 11
smoothSolver:  Solving for Uy, Initial residual = 0.0508523, Final residual = 0.0049725, No Iterations 10
smoothSolver:  Solving for Uz, Initial residual = 0.0367533, Final residual = 0.00350378, No Iterations 10
GAMG:  Solving for p, Initial residual = 0.0190673, Final residual = 0.000136506, No Iterations 4
time step continuity errors : sum local = 0.000222276, global = -3.66674e-06, cumulative = -4.85946e-05
smoothSolver:  Solving for omega, Initial residual = 0.000259425, Final residual = 1.3226e-05, No Iterations 4
bounding omega, min: -540.628 max: 827223 average: 909.658
smoothSolver:  Solving for k, Initial residual = 0.00386667, Final residual = 0.000251455, No Iterations 4
ExecutionTime = 3.3 s  ClockTime = 4 s

forceCoeffs forceCoeffs1 write:
    Cm    = 0.156741
    Cd    = 0.391436
    Cl    = 0.0636803
    Cl(f) = 0.188581
    Cl(r) = -0.124901

Time = 44

smoothSolver:  Solving for Ux, Initial residual = 0.00221919, Final residual = 0.000179265, No Iterations 11
smoothSolver:  Solving for Uy, Initial residual = 0.0495943, Final residual = 0.00479539, No Iterations 10
smoothSolver:  Solving for Uz, Initial residual = 0.0355744, Final residual = 0.00337535, No Iterations 10
GAMG:  Solving for p, Initial residual = 0.0187732, Final residual = 0.000132691, No Iterations 4
time step continuity errors : sum local = 0.000213941, global = -3.53638e-06, cumulative = -5.2131e-05
smoothSolver:  Solving for omega, Initial residual = 0.000249562, Final residual = 1.27849e-05, No Iterations 4
bounding omega, min: -451.994 max: 827223 average: 910.174
smoothSolver:  Solving for k, Initial residual = 0.0037458, Final residual = 0.000245321, No Iterations 4
ExecutionTime = 3.36 s  ClockTime = 4 s

forceCoeffs forceCoeffs1 write:
    Cm    = 0.156091
    Cd    = 0.3919
    Cl    = 0.0644543
    Cl(f) = 0.188318
    Cl(r) = -0.123864

Time = 45

smoothSolver:  Solving for Ux, Initial residual = 0.00215844, Final residual = 0.000174424, No Iterations 11
smoothSolver:  Solving for Uy, Initial residual = 0.048204, Final residual = 0.00460083, No Iterations 10
smoothSolver:  Solving for Uz, Initial residual = 0.0344746, Final residual = 0.00325223, No Iterations 10
GAMG:  Solving for p, Initial residual = 0.0184542, Final residual = 0.000130953, No Iterations 4
time step continuity errors : sum local = 0.00020903, global = -3.1771e-06, cumulative = -5.53081e-05
smoothSolver:  Solving for omega, Initial residual = 0.000243303, Final residual = 1.23902e-05, No Iterations 4
bounding omega, min: -741.563 max: 827223 average: 910.641
smoothSolver:  Solving for k, Initial residual = 0.0036347, Final residual = 0.000239001, No Iterations 4
ExecutionTime = 3.43 s  ClockTime = 4 s

forceCoeffs forceCoeffs1 write:
    Cm    = 0.155365
    Cd    = 0.392252
    Cl    = 0.0655764
    Cl(f) = 0.188153
    Cl(r) = -0.122577

Time = 46

smoothSolver:  Solving for Ux, Initial residual = 0.0021021, Final residual = 0.000170292, No Iterations 11
smoothSolver:  Solving for Uy, Initial residual = 0.0467182, Final residual = 0.00441133, No Iterations 10
smoothSolver:  Solving for Uz, Initial residual = 0.0333892, Final residual = 0.00313911, No Iterations 10
GAMG:  Solving for p, Initial residual = 0.0180886, Final residual = 0.000130747, No Iterations 4
time step continuity errors : sum local = 0.000206952, global = -2.3263e-06, cumulative = -5.76344e-05
smoothSolver:  Solving for omega, Initial residual = 0.000239238, Final residual = 1.20584e-05, No Iterations 4
bounding omega, min: -190.119 max: 827223 average: 911.165
smoothSolver:  Solving for k, Initial residual = 0.00354657, Final residual = 0.000233224, No Iterations 4
ExecutionTime = 3.5 s  ClockTime = 4 s

forceCoeffs forceCoeffs1 write:
    Cm    = 0.155598
    Cd    = 0.393282
    Cl    = 0.0660381
    Cl(f) = 0.188617
    Cl(r) = -0.122579

Time = 47

smoothSolver:  Solving for Ux, Initial residual = 0.00205526, Final residual = 0.000166381, No Iterations 11
smoothSolver:  Solving for Uy, Initial residual = 0.0450959, Final residual = 0.00422771, No Iterations 10
smoothSolver:  Solving for Uz, Initial residual = 0.0324763, Final residual = 0.00304193, No Iterations 10
GAMG:  Solving for p, Initial residual = 0.0176764, Final residual = 0.000132083, No Iterations 4
time step continuity errors : sum local = 0.00020762, global = -2.53435e-06, cumulative = -6.01687e-05
smoothSolver:  Solving for omega, Initial residual = 0.000240683, Final residual = 2.37468e-05, No Iterations 3
smoothSolver:  Solving for k, Initial residual = 0.00347267, Final residual = 0.000228143, No Iterations 4
ExecutionTime = 3.56 s  ClockTime = 4 s

forceCoeffs forceCoeffs1 write:
    Cm    = 0.155763
    Cd    = 0.394257
    Cl    = 0.0671202
    Cl(f) = 0.189323
    Cl(r) = -0.122203

Time = 48

smoothSolver:  Solving for Ux, Initial residual = 0.00200871, Final residual = 0.000162264, No Iterations 11
smoothSolver:  Solving for Uy, Initial residual = 0.0433808, Final residual = 0.00405865, No Iterations 10
smoothSolver:  Solving for Uz, Initial residual = 0.0315161, Final residual = 0.00294194, No Iterations 10
GAMG:  Solving for p, Initial residual = 0.0171939, Final residual = 0.000131053, No Iterations 4
time step continuity errors : sum local = 0.000204937, global = -2.6173e-06, cumulative = -6.2786e-05
smoothSolver:  Solving for omega, Initial residual = 0.000233103, Final residual = 1.15438e-05, No Iterations 4
smoothSolver:  Solving for k, Initial residual = 0.00340938, Final residual = 0.000223168, No Iterations 4
ExecutionTime = 3.63 s  ClockTime = 4 s

forceCoeffs forceCoeffs1 write:
    Cm    = 0.156896
    Cd    = 0.39567
    Cl    = 0.0669717
    Cl(f) = 0.190382
    Cl(r) = -0.123411

Time = 49

smoothSolver:  Solving for Ux, Initial residual = 0.00196113, Final residual = 0.000158468, No Iterations 11
smoothSolver:  Solving for Uy, Initial residual = 0.0416256, Final residual = 0.00389447, No Iterations 10
smoothSolver:  Solving for Uz, Initial residual = 0.0306795, Final residual = 0.00284604, No Iterations 10
GAMG:  Solving for p, Initial residual = 0.0166805, Final residual = 0.000125283, No Iterations 4
time step continuity errors : sum local = 0.000195386, global = -1.50451e-06, cumulative = -6.42906e-05
smoothSolver:  Solving for omega, Initial residual = 0.000224027, Final residual = 1.12222e-05, No Iterations 4
smoothSolver:  Solving for k, Initial residual = 0.00334393, Final residual = 0.000217755, No Iterations 4
ExecutionTime = 3.69 s  ClockTime = 4 s

forceCoeffs forceCoeffs1 write:
    Cm    = 0.157183
    Cd    = 0.396293
    Cl    = 0.0680562
    Cl(f) = 0.191211
    Cl(r) = -0.123155

Time = 50

smoothSolver:  Solving for Ux, Initial residual = 0.0019063, Final residual = 0.000154897, No Iterations 11
smoothSolver:  Solving for Uy, Initial residual = 0.0398431, Final residual = 0.00373152, No Iterations 10
smoothSolver:  Solving for Uz, Initial residual = 0.0298132, Final residual = 0.00275436, No Iterations 10
GAMG:  Solving for p, Initial residual = 0.0161278, Final residual = 0.000118794, No Iterations 4
time step continuity errors : sum local = 0.000185113, global = -2.87504e-07, cumulative = -6.45781e-05
smoothSolver:  Solving for omega, Initial residual = 0.000214184, Final residual = 1.08955e-05, No Iterations 4
smoothSolver:  Solving for k, Initial residual = 0.00327785, Final residual = 0.000213087, No Iterations 4
ExecutionTime = 3.76 s  ClockTime = 4 s

forceCoeffs forceCoeffs1 write:
    Cm    = 0.158122
    Cd    = 0.397368
    Cl    = 0.0680233
    Cl(f) = 0.192133
    Cl(r) = -0.12411

Time = 51

smoothSolver:  Solving for Ux, Initial residual = 0.00184942, Final residual = 0.000151604, No Iterations 11
smoothSolver:  Solving for Uy, Initial residual = 0.038223, Final residual = 0.00357948, No Iterations 10
smoothSolver:  Solving for Uz, Initial residual = 0.0290517, Final residual = 0.00267359, No Iterations 10
GAMG:  Solving for p, Initial residual = 0.0156324, Final residual = 0.000115008, No Iterations 4
time step continuity errors : sum local = 0.00017932, global = 1.24123e-07, cumulative = -6.44539e-05
smoothSolver:  Solving for omega, Initial residual = 0.000208643, Final residual = 1.06053e-05, No Iterations 4
bounding omega, min: -6.95623 max: 827223 average: 912.992
smoothSolver:  Solving for k, Initial residual = 0.00321663, Final residual = 0.000208601, No Iterations 4
ExecutionTime = 3.84 s  ClockTime = 4 s

forceCoeffs forceCoeffs1 write:
    Cm    = 0.158516
    Cd    = 0.398149
    Cl    = 0.0684917
    Cl(f) = 0.192762
    Cl(r) = -0.124271

Time = 52

smoothSolver:  Solving for Ux, Initial residual = 0.00179702, Final residual = 0.000148095, No Iterations 11
smoothSolver:  Solving for Uy, Initial residual = 0.036767, Final residual = 0.00344889, No Iterations 10
smoothSolver:  Solving for Uz, Initial residual = 0.0283797, Final residual = 0.00261138, No Iterations 10
GAMG:  Solving for p, Initial residual = 0.0151661, Final residual = 0.000114036, No Iterations 4
time step continuity errors : sum local = 0.000177912, global = -2.20044e-07, cumulative = -6.4674e-05
smoothSolver:  Solving for omega, Initial residual = 0.000203461, Final residual = 1.0309e-05, No Iterations 4
smoothSolver:  Solving for k, Initial residual = 0.00315875, Final residual = 0.000204084, No Iterations 4
ExecutionTime = 3.92 s  ClockTime = 4 s

forceCoeffs forceCoeffs1 write:
    Cm    = 0.158878
    Cd    = 0.398911
    Cl    = 0.0686258
    Cl(f) = 0.193191
    Cl(r) = -0.124565

Time = 53

smoothSolver:  Solving for Ux, Initial residual = 0.00174891, Final residual = 0.000143982, No Iterations 11
smoothSolver:  Solving for Uy, Initial residual = 0.0356905, Final residual = 0.00332361, No Iterations 10
smoothSolver:  Solving for Uz, Initial residual = 0.0278228, Final residual = 0.00256081, No Iterations 10
GAMG:  Solving for p, Initial residual = 0.0147175, Final residual = 0.000112366, No Iterations 4
time step continuity errors : sum local = 0.000175375, global = -9.5655e-07, cumulative = -6.56305e-05
smoothSolver:  Solving for omega, Initial residual = 0.000197741, Final residual = 9.9998e-06, No Iterations 4
bounding omega, min: -34.5016 max: 827223 average: 914.346
smoothSolver:  Solving for k, Initial residual = 0.00310065, Final residual = 0.00019941, No Iterations 4
ExecutionTime = 3.99 s  ClockTime = 4 s

forceCoeffs forceCoeffs1 write:
    Cm    = 0.158842
    Cd    = 0.399432
    Cl    = 0.0688865
    Cl(f) = 0.193285
    Cl(r) = -0.124398

Time = 54

smoothSolver:  Solving for Ux, Initial residual = 0.00171036, Final residual = 0.000139539, No Iterations 11
smoothSolver:  Solving for Uy, Initial residual = 0.0347729, Final residual = 0.00320873, No Iterations 10
smoothSolver:  Solving for Uz, Initial residual = 0.0273111, Final residual = 0.00251503, No Iterations 10
GAMG:  Solving for p, Initial residual = 0.0142971, Final residual = 0.000108816, No Iterations 4
time step continuity errors : sum local = 0.000169782, global = -1.45913e-06, cumulative = -6.70897e-05
smoothSolver:  Solving for omega, Initial residual = 0.000191884, Final residual = 9.70037e-06, No Iterations 4
smoothSolver:  Solving for k, Initial residual = 0.0030414, Final residual = 0.000195019, No Iterations 4
ExecutionTime = 4.07 s  ClockTime = 4 s

forceCoeffs forceCoeffs1 write:
    Cm    = 0.158468
    Cd    = 0.399652
    Cl    = 0.0691099
    Cl(f) = 0.193023
    Cl(r) = -0.123913

Time = 55

smoothSolver:  Solving for Ux, Initial residual = 0.00167537, Final residual = 0.000135171, No Iterations 11
smoothSolver:  Solving for Uy, Initial residual = 0.0338957, Final residual = 0.00307987, No Iterations 10
smoothSolver:  Solving for Uz, Initial residual = 0.0267262, Final residual = 0.0024587, No Iterations 10
GAMG:  Solving for p, Initial residual = 0.0138628, Final residual = 0.000104773, No Iterations 4
time step continuity errors : sum local = 0.000163462, global = -1.19493e-06, cumulative = -6.82846e-05
smoothSolver:  Solving for omega, Initial residual = 0.000186872, Final residual = 9.41215e-06, No Iterations 4
smoothSolver:  Solving for k, Initial residual = 0.00297574, Final residual = 0.000190559, No Iterations 4
ExecutionTime = 4.13 s  ClockTime = 4 s

forceCoeffs forceCoeffs1 write:
    Cm    = 0.157848
    Cd    = 0.399797
    Cl    = 0.0693434
    Cl(f) = 0.19252
    Cl(r) = -0.123176

Time = 56

smoothSolver:  Solving for Ux, Initial residual = 0.00163443, Final residual = 0.000162893, No Iterations 10
smoothSolver:  Solving for Uy, Initial residual = 0.0329241, Final residual = 0.00294751, No Iterations 10
smoothSolver:  Solving for Uz, Initial residual = 0.0261166, Final residual = 0.00238527, No Iterations 10
GAMG:  Solving for p, Initial residual = 0.0134048, Final residual = 0.00010292, No Iterations 4
time step continuity errors : sum local = 0.000160568, global = -1.87764e-07, cumulative = -6.84724e-05
smoothSolver:  Solving for omega, Initial residual = 0.000180973, Final residual = 9.1734e-06, No Iterations 4
smoothSolver:  Solving for k, Initial residual = 0.00289754, Final residual = 0.000185935, No Iterations 4
ExecutionTime = 4.2 s  ClockTime = 5 s

forceCoeffs forceCoeffs1 write:
    Cm    = 0.157012
    Cd    = 0.399694
    Cl    = 0.0697566
    Cl(f) = 0.191891
    Cl(r) = -0.122134

Time = 57

smoothSolver:  Solving for Ux, Initial residual = 0.00158894, Final residual = 0.000158197, No Iterations 10
smoothSolver:  Solving for Uy, Initial residual = 0.0317092, Final residual = 0.00281061, No Iterations 10
smoothSolver:  Solving for Uz, Initial residual = 0.0254232, Final residual = 0.00229518, No Iterations 10
GAMG:  Solving for p, Initial residual = 0.0130272, Final residual = 0.000101886, No Iterations 4
time step continuity errors : sum local = 0.000158961, global = 9.72767e-07, cumulative = -6.74996e-05
smoothSolver:  Solving for omega, Initial residual = 0.000176648, Final residual = 8.93962e-06, No Iterations 4
smoothSolver:  Solving for k, Initial residual = 0.00281428, Final residual = 0.000181489, No Iterations 4
ExecutionTime = 4.27 s  ClockTime = 5 s

forceCoeffs forceCoeffs1 write:
    Cm    = 0.156401
    Cd    = 0.399837
    Cl    = 0.070249
    Cl(f) = 0.191526
    Cl(r) = -0.121277

Time = 58

smoothSolver:  Solving for Ux, Initial residual = 0.00153981, Final residual = 0.000153429, No Iterations 10
smoothSolver:  Solving for Uy, Initial residual = 0.030418, Final residual = 0.00268518, No Iterations 10
smoothSolver:  Solving for Uz, Initial residual = 0.0248792, Final residual = 0.0022143, No Iterations 10
GAMG:  Solving for p, Initial residual = 0.0127575, Final residual = 0.000102452, No Iterations 4
time step continuity errors : sum local = 0.000159822, global = 1.89515e-06, cumulative = -6.56044e-05
smoothSolver:  Solving for omega, Initial residual = 0.00017292, Final residual = 8.721e-06, No Iterations 4
smoothSolver:  Solving for k, Initial residual = 0.00273392, Final residual = 0.000177076, No Iterations 4
ExecutionTime = 4.33 s  ClockTime = 5 s

forceCoeffs forceCoeffs1 write:
    Cm    = 0.155911
    Cd    = 0.400048
    Cl    = 0.070913
    Cl(f) = 0.191368
    Cl(r) = -0.120455

Time = 59

smoothSolver:  Solving for Ux, Initial residual = 0.00148998, Final residual = 0.000148682, No Iterations 10
smoothSolver:  Solving for Uy, Initial residual = 0.0292091, Final residual = 0.00256961, No Iterations 10
smoothSolver:  Solving for Uz, Initial residual = 0.0244819, Final residual = 0.00215264, No Iterations 10
GAMG:  Solving for p, Initial residual = 0.0125481, Final residual = 0.000102531, No Iterations 4
time step continuity errors : sum local = 0.000159821, global = 2.42323e-06, cumulative = -6.31812e-05
smoothSolver:  Solving for omega, Initial residual = 0.000169158, Final residual = 8.50703e-06, No Iterations 4
smoothSolver:  Solving for k, Initial residual = 0.00265339, Final residual = 0.000172905, No Iterations 4
ExecutionTime = 4.39 s  ClockTime = 5 s

forceCoeffs forceCoeffs1 write:
    Cm    = 0.155786
    Cd    = 0.400637
    Cl    = 0.071455
    Cl(f) = 0.191513
    Cl(r) = -0.120058

Time = 60

smoothSolver:  Solving for Ux, Initial residual = 0.00144555, Final residual = 0.000116423, No Iterations 11
smoothSolver:  Solving for Uy, Initial residual = 0.0281407, Final residual = 0.00247041, No Iterations 10
smoothSolver:  Solving for Uz, Initial residual = 0.0241183, Final residual = 0.00209919, No Iterations 10
GAMG:  Solving for p, Initial residual = 0.0123644, Final residual = 0.000100879, No Iterations 4
time step continuity errors : sum local = 0.000157024, global = 2.76151e-06, cumulative = -6.04197e-05
smoothSolver:  Solving for omega, Initial residual = 0.000165646, Final residual = 8.33727e-06, No Iterations 4
smoothSolver:  Solving for k, Initial residual = 0.00257028, Final residual = 0.000168772, No Iterations 4
ExecutionTime = 4.46 s  ClockTime = 5 s

forceCoeffs forceCoeffs1 write:
    Cm    = 0.155988
    Cd    = 0.401447
    Cl    = 0.0719234
    Cl(f) = 0.19195
    Cl(r) = -0.120026

Time = 61

smoothSolver:  Solving for Ux, Initial residual = 0.00139819, Final residual = 0.000113013, No Iterations 11
smoothSolver:  Solving for Uy, Initial residual = 0.027199, Final residual = 0.00238254, No Iterations 10
smoothSolver:  Solving for Uz, Initial residual = 0.0237556, Final residual = 0.00205636, No Iterations 10
GAMG:  Solving for p, Initial residual = 0.0122351, Final residual = 9.79234e-05, No Iterations 4
time step continuity errors : sum local = 0.000152079, global = 2.79459e-06, cumulative = -5.76251e-05
smoothSolver:  Solving for omega, Initial residual = 0.000162626, Final residual = 8.15067e-06, No Iterations 4
smoothSolver:  Solving for k, Initial residual = 0.00249674, Final residual = 0.000164409, No Iterations 4
ExecutionTime = 4.53 s  ClockTime = 5 s

forceCoeffs forceCoeffs1 write:
    Cm    = 0.156627
    Cd    = 0.402662
    Cl    = 0.0720726
    Cl(f) = 0.192663
    Cl(r) = -0.12059

Time = 62

smoothSolver:  Solving for Ux, Initial residual = 0.00135533, Final residual = 0.000109743, No Iterations 11
smoothSolver:  Solving for Uy, Initial residual = 0.0263259, Final residual = 0.00229135, No Iterations 10
smoothSolver:  Solving for Uz, Initial residual = 0.0233054, Final residual = 0.00201465, No Iterations 10
GAMG:  Solving for p, Initial residual = 0.0120526, Final residual = 9.39583e-05, No Iterations 4
time step continuity errors : sum local = 0.000145516, global = 2.70546e-06, cumulative = -5.49196e-05
smoothSolver:  Solving for omega, Initial residual = 0.000159716, Final residual = 8.00311e-06, No Iterations 4
bounding omega, min: -3.23118 max: 827223 average: 921.74
smoothSolver:  Solving for k, Initial residual = 0.00242558, Final residual = 0.000160001, No Iterations 4
ExecutionTime = 4.59 s  ClockTime = 5 s

forceCoeffs forceCoeffs1 write:
    Cm    = 0.157538
    Cd    = 0.404007
    Cl    = 0.0720449
    Cl(f) = 0.19356
    Cl(r) = -0.121515

Time = 63

smoothSolver:  Solving for Ux, Initial residual = 0.0013158, Final residual = 0.000106592, No Iterations 11
smoothSolver:  Solving for Uy, Initial residual = 0.0255048, Final residual = 0.00220744, No Iterations 10
smoothSolver:  Solving for Uz, Initial residual = 0.0228397, Final residual = 0.00197298, No Iterations 10
GAMG:  Solving for p, Initial residual = 0.0117947, Final residual = 9.01846e-05, No Iterations 4
time step continuity errors : sum local = 0.000139272, global = 2.56399e-06, cumulative = -5.23557e-05
smoothSolver:  Solving for omega, Initial residual = 0.000156745, Final residual = 7.82038e-06, No Iterations 4
smoothSolver:  Solving for k, Initial residual = 0.0023605, Final residual = 0.000155595, No Iterations 4
ExecutionTime = 4.66 s  ClockTime = 5 s

forceCoeffs forceCoeffs1 write:
    Cm    = 0.158659
    Cd    = 0.40553
    Cl    = 0.0719352
    Cl(f) = 0.194626
    Cl(r) = -0.122691

Time = 64

smoothSolver:  Solving for Ux, Initial residual = 0.00127864, Final residual = 0.000103439, No Iterations 11
smoothSolver:  Solving for Uy, Initial residual = 0.0248336, Final residual = 0.0021433, No Iterations 10
smoothSolver:  Solving for Uz, Initial residual = 0.0222795, Final residual = 0.00192364, No Iterations 10
GAMG:  Solving for p, Initial residual = 0.0114979, Final residual = 8.80841e-05, No Iterations 4
time step continuity errors : sum local = 0.000135641, global = 2.33771e-06, cumulative = -5.00179e-05
smoothSolver:  Solving for omega, Initial residual = 0.000154097, Final residual = 7.66924e-06, No Iterations 4
bounding omega, min: -29.7309 max: 827223 average: 922.986
smoothSolver:  Solving for k, Initial residual = 0.0023073, Final residual = 0.000151431, No Iterations 4
ExecutionTime = 4.72 s  ClockTime = 5 s

forceCoeffs forceCoeffs1 write:
    Cm    = 0.159725
    Cd    = 0.406925
    Cl    = 0.0718982
    Cl(f) = 0.195674
    Cl(r) = -0.123775

Time = 65

smoothSolver:  Solving for Ux, Initial residual = 0.00124137, Final residual = 0.000100076, No Iterations 11
smoothSolver:  Solving for Uy, Initial residual = 0.0242817, Final residual = 0.00209351, No Iterations 10
smoothSolver:  Solving for Uz, Initial residual = 0.0216783, Final residual = 0.00186998, No Iterations 10
GAMG:  Solving for p, Initial residual = 0.011229, Final residual = 8.72109e-05, No Iterations 4
time step continuity errors : sum local = 0.000133949, global = 2.03614e-06, cumulative = -4.79818e-05
smoothSolver:  Solving for omega, Initial residual = 0.00015144, Final residual = 7.51635e-06, No Iterations 4
smoothSolver:  Solving for k, Initial residual = 0.00225366, Final residual = 0.000147577, No Iterations 4
ExecutionTime = 4.8 s  ClockTime = 5 s

forceCoeffs forceCoeffs1 write:
    Cm    = 0.160644
    Cd    = 0.408102
    Cl    = 0.0718891
    Cl(f) = 0.196589
    Cl(r) = -0.1247

Time = 66

smoothSolver:  Solving for Ux, Initial residual = 0.00120606, Final residual = 0.000120385, No Iterations 10
smoothSolver:  Solving for Uy, Initial residual = 0.0238166, Final residual = 0.00205248, No Iterations 10
smoothSolver:  Solving for Uz, Initial residual = 0.0210386, Final residual = 0.00181358, No Iterations 10
GAMG:  Solving for p, Initial residual = 0.0109701, Final residual = 8.61982e-05, No Iterations 4
time step continuity errors : sum local = 0.000132023, global = 1.78298e-06, cumulative = -4.61988e-05
smoothSolver:  Solving for omega, Initial residual = 0.000149082, Final residual = 7.35979e-06, No Iterations 4
bounding omega, min: -8.41005 max: 827223 average: 924.654
smoothSolver:  Solving for k, Initial residual = 0.00220336, Final residual = 0.000144026, No Iterations 4
ExecutionTime = 4.87 s  ClockTime = 5 s

forceCoeffs forceCoeffs1 write:
    Cm    = 0.161341
    Cd    = 0.408922
    Cl    = 0.071956
    Cl(f) = 0.197319
    Cl(r) = -0.125363

Time = 67

smoothSolver:  Solving for Ux, Initial residual = 0.00117621, Final residual = 0.000116764, No Iterations 10
smoothSolver:  Solving for Uy, Initial residual = 0.0233398, Final residual = 0.00200573, No Iterations 10
smoothSolver:  Solving for Uz, Initial residual = 0.0203999, Final residual = 0.00175081, No Iterations 10
GAMG:  Solving for p, Initial residual = 0.0107447, Final residual = 8.50148e-05, No Iterations 4
time step continuity errors : sum local = 0.00012989, global = 1.48294e-06, cumulative = -4.47159e-05
smoothSolver:  Solving for omega, Initial residual = 0.000146095, Final residual = 7.19787e-06, No Iterations 4
smoothSolver:  Solving for k, Initial residual = 0.00215262, Final residual = 0.000140703, No Iterations 4
ExecutionTime = 4.94 s  ClockTime = 5 s

forceCoeffs forceCoeffs1 write:
    Cm    = 0.161689
    Cd    = 0.409313
    Cl    = 0.0720155
    Cl(f) = 0.197697
    Cl(r) = -0.125681

Time = 68

smoothSolver:  Solving for Ux, Initial residual = 0.0011458, Final residual = 0.000113239, No Iterations 10
smoothSolver:  Solving for Uy, Initial residual = 0.0229509, Final residual = 0.0019576, No Iterations 10
smoothSolver:  Solving for Uz, Initial residual = 0.019851, Final residual = 0.00169718, No Iterations 10
GAMG:  Solving for p, Initial residual = 0.0106077, Final residual = 8.38577e-05, No Iterations 4
time step continuity errors : sum local = 0.000127864, global = 1.1177e-06, cumulative = -4.35982e-05
smoothSolver:  Solving for omega, Initial residual = 0.000144091, Final residual = 7.07309e-06, No Iterations 4
smoothSolver:  Solving for k, Initial residual = 0.00210369, Final residual = 0.000137781, No Iterations 4
ExecutionTime = 5.01 s  ClockTime = 5 s

forceCoeffs forceCoeffs1 write:
    Cm    = 0.161583
    Cd    = 0.409146
    Cl    = 0.0721302
    Cl(f) = 0.197648
    Cl(r) = -0.125518

Time = 69

smoothSolver:  Solving for Ux, Initial residual = 0.0011139, Final residual = 0.000109513, No Iterations 10
smoothSolver:  Solving for Uy, Initial residual = 0.0226058, Final residual = 0.00190961, No Iterations 10
smoothSolver:  Solving for Uz, Initial residual = 0.0193924, Final residual = 0.00165232, No Iterations 10
GAMG:  Solving for p, Initial residual = 0.0105067, Final residual = 8.22008e-05, No Iterations 4
time step continuity errors : sum local = 0.000125113, global = 7.27675e-07, cumulative = -4.28705e-05
smoothSolver:  Solving for omega, Initial residual = 0.000141548, Final residual = 1.41218e-05, No Iterations 3
bounding omega, min: -2.47429 max: 827223 average: 927.427
smoothSolver:  Solving for k, Initial residual = 0.00206087, Final residual = 0.000135129, No Iterations 4
ExecutionTime = 5.08 s  ClockTime = 5 s

forceCoeffs forceCoeffs1 write:
    Cm    = 0.161006
    Cd    = 0.408417
    Cl    = 0.072407
    Cl(f) = 0.197209
    Cl(r) = -0.124802

Time = 70

smoothSolver:  Solving for Ux, Initial residual = 0.00108332, Final residual = 0.000105417, No Iterations 10
smoothSolver:  Solving for Uy, Initial residual = 0.0222703, Final residual = 0.00186525, No Iterations 10
smoothSolver:  Solving for Uz, Initial residual = 0.0190595, Final residual = 0.00161752, No Iterations 10
GAMG:  Solving for p, Initial residual = 0.0104323, Final residual = 8.10336e-05, No Iterations 4
time step continuity errors : sum local = 0.000123144, global = 4.65776e-07, cumulative = -4.24047e-05
smoothSolver:  Solving for omega, Initial residual = 0.000140819, Final residual = 1.39455e-05, No Iterations 3
bounding omega, min: -143.28 max: 827223 average: 928.336
smoothSolver:  Solving for k, Initial residual = 0.00202161, Final residual = 0.000132498, No Iterations 4
ExecutionTime = 5.14 s  ClockTime = 6 s

forceCoeffs forceCoeffs1 write:
    Cm    = 0.160003
    Cd    = 0.407159
    Cl    = 0.0728387
    Cl(f) = 0.196423
    Cl(r) = -0.123584

Time = 71

smoothSolver:  Solving for Ux, Initial residual = 0.00105491, Final residual = 0.000101203, No Iterations 10
smoothSolver:  Solving for Uy, Initial residual = 0.0219573, Final residual = 0.00181785, No Iterations 10
smoothSolver:  Solving for Uz, Initial residual = 0.0188075, Final residual = 0.00159111, No Iterations 10
GAMG:  Solving for p, Initial residual = 0.0103724, Final residual = 8.03488e-05, No Iterations 4
time step continuity errors : sum local = 0.000121955, global = 3.70625e-07, cumulative = -4.20341e-05
smoothSolver:  Solving for omega, Initial residual = 0.000139962, Final residual = 1.37752e-05, No Iterations 3
bounding omega, min: -41.1679 max: 827223 average: 929.16
smoothSolver:  Solving for k, Initial residual = 0.00198699, Final residual = 0.000130079, No Iterations 4
ExecutionTime = 5.21 s  ClockTime = 6 s

forceCoeffs forceCoeffs1 write:
    Cm    = 0.158773
    Cd    = 0.405566
    Cl    = 0.0733068
    Cl(f) = 0.195426
    Cl(r) = -0.12212

Time = 72

smoothSolver:  Solving for Ux, Initial residual = 0.00102644, Final residual = 9.68818e-05, No Iterations 10
smoothSolver:  Solving for Uy, Initial residual = 0.0215786, Final residual = 0.00176488, No Iterations 10
smoothSolver:  Solving for Uz, Initial residual = 0.0185506, Final residual = 0.0015626, No Iterations 10
GAMG:  Solving for p, Initial residual = 0.0102843, Final residual = 7.91839e-05, No Iterations 4
time step continuity errors : sum local = 0.000120063, global = 1.50099e-07, cumulative = -4.1884e-05
[...]
    Cl(r) = -0.117298

Time = 80

smoothSolver:  Solving for Ux, Initial residual = 0.000834599, Final residual = 7.49622e-05, No Iterations 10
smoothSolver:  Solving for Uy, Initial residual = 0.0190507, Final residual = 0.00186873, No Iterations 9
smoothSolver:  Solving for Uz, Initial residual = 0.0165091, Final residual = 0.00132071, No Iterations 10
GAMG:  Solving for p, Initial residual = 0.0095022, Final residual = 6.99264e-05, No Iterations 4
time step continuity errors : sum local = 0.000104702, global = 4.91e-07, cumulative = -4.51666e-05
smoothSolver:  Solving for omega, Initial residual = 0.00013006, Final residual = 1.24114e-05, No Iterations 3
smoothSolver:  Solving for k, Initial residual = 0.00175496, Final residual = 0.000115161, No Iterations 4
ExecutionTime = 5.81 s  ClockTime = 6 s

forceCoeffs forceCoeffs1 write:
    Cm    = 0.157117
    Cd    = 0.399208
    Cl    = 0.0803602
    Cl(f) = 0.197297
    Cl(r) = -0.116937

Time = 81

smoothSolver:  Solving for Ux, Initial residual = 0.000818296, Final residual = 7.34681e-05, No Iterations 10
smoothSolver:  Solving for Uy, Initial residual = 0.0188935, Final residual = 0.00185562, No Iterations 9
smoothSolver:  Solving for Uz, Initial residual = 0.0163003, Final residual = 0.0016157, No Iterations 9
GAMG:  Solving for p, Initial residual = 0.00942209, Final residual = 6.97171e-05, No Iterations 4
time step continuity errors : sum local = 0.000104346, global = 8.60267e-07, cumulative = -4.43063e-05
smoothSolver:  Solving for omega, Initial residual = 0.000129329, Final residual = 1.23214e-05, No Iterations 3
smoothSolver:  Solving for k, Initial residual = 0.00172381, Final residual = 0.000113067, No Iterations 4
ExecutionTime = 5.88 s  ClockTime = 6 s

forceCoeffs forceCoeffs1 write:
    Cm    = 0.156824
    Cd    = 0.398741
    Cl    = 0.0808754
    Cl(f) = 0.197261
    Cl(r) = -0.116386

Time = 82

smoothSolver:  Solving for Ux, Initial residual = 0.000804346, Final residual = 7.24281e-05, No Iterations 10
smoothSolver:  Solving for Uy, Initial residual = 0.0187046, Final residual = 0.0018398, No Iterations 9
smoothSolver:  Solving for Uz, Initial residual = 0.0161624, Final residual = 0.00159083, No Iterations 9
GAMG:  Solving for p, Initial residual = 0.0093349, Final residual = 7.02961e-05, No Iterations 4
time step continuity errors : sum local = 0.000105225, global = 8.12498e-07, cumulative = -4.34938e-05
smoothSolver:  Solving for omega, Initial residual = 0.000127978, Final residual = 1.21829e-05, No Iterations 3
bounding omega, min: -1957 max: 827223 average: 932.389
smoothSolver:  Solving for k, Initial residual = 0.00169686, Final residual = 0.000110971, No Iterations 4
ExecutionTime = 5.95 s  ClockTime = 6 s

forceCoeffs forceCoeffs1 write:
    Cm    = 0.156314
    Cd    = 0.398207
    Cl    = 0.0811868
    Cl(f) = 0.196907
    Cl(r) = -0.11572

Time = 83

smoothSolver:  Solving for Ux, Initial residual = 0.000793339, Final residual = 7.1834e-05, No Iterations 10
smoothSolver:  Solving for Uy, Initial residual = 0.0184987, Final residual = 0.00181452, No Iterations 9
smoothSolver:  Solving for Uz, Initial residual = 0.0159911, Final residual = 0.00156848, No Iterations 9
GAMG:  Solving for p, Initial residual = 0.00925396, Final residual = 7.01123e-05, No Iterations 4
time step continuity errors : sum local = 0.000105008, global = 6.24088e-07, cumulative = -4.28698e-05
smoothSolver:  Solving for omega, Initial residual = 0.000127275, Final residual = 1.21169e-05, No Iterations 3
smoothSolver:  Solving for k, Initial residual = 0.00167617, Final residual = 0.000109401, No Iterations 4
ExecutionTime = 6.02 s  ClockTime = 6 s

forceCoeffs forceCoeffs1 write:
    Cm    = 0.155659
    Cd    = 0.39766
    Cl    = 0.0813389
    Cl(f) = 0.196329
    Cl(r) = -0.11499

Time = 84

smoothSolver:  Solving for Ux, Initial residual = 0.000784351, Final residual = 7.1323e-05, No Iterations 10
smoothSolver:  Solving for Uy, Initial residual = 0.0183044, Final residual = 0.00178554, No Iterations 9
smoothSolver:  Solving for Uz, Initial residual = 0.0158073, Final residual = 0.0015432, No Iterations 9
GAMG:  Solving for p, Initial residual = 0.00917257, Final residual = 6.89173e-05, No Iterations 4
time step continuity errors : sum local = 0.000103291, global = 4.58941e-07, cumulative = -4.24108e-05
smoothSolver:  Solving for omega, Initial residual = 0.000126112, Final residual = 1.20349e-05, No Iterations 3
smoothSolver:  Solving for k, Initial residual = 0.0016582, Final residual = 0.000108433, No Iterations 4
ExecutionTime = 6.08 s  ClockTime = 7 s

forceCoeffs forceCoeffs1 write:
    Cm    = 0.154963
    Cd    = 0.397127
    Cl    = 0.0812585
    Cl(f) = 0.195592
    Cl(r) = -0.114333

Time = 85

smoothSolver:  Solving for Ux, Initial residual = 0.000778503, Final residual = 7.07251e-05, No Iterations 10
smoothSolver:  Solving for Uy, Initial residual = 0.0181635, Final residual = 0.00175855, No Iterations 9
smoothSolver:  Solving for Uz, Initial residual = 0.0156145, Final residual = 0.00151516, No Iterations 9
GAMG:  Solving for p, Initial residual = 0.00913517, Final residual = 6.80769e-05, No Iterations 4
time step continuity errors : sum local = 0.000102147, global = 3.56485e-07, cumulative = -4.20543e-05
smoothSolver:  Solving for omega, Initial residual = 0.00012493, Final residual = 1.19267e-05, No Iterations 3
smoothSolver:  Solving for k, Initial residual = 0.00164029, Final residual = 0.000107616, No Iterations 4
ExecutionTime = 6.14 s  ClockTime = 7 s

forceCoeffs forceCoeffs1 write:
    Cm    = 0.154364
    Cd    = 0.396745
    Cl    = 0.0809423
    Cl(f) = 0.194836
    Cl(r) = -0.113893

Time = 86

smoothSolver:  Solving for Ux, Initial residual = 0.000773738, Final residual = 6.99761e-05, No Iterations 10
smoothSolver:  Solving for Uy, Initial residual = 0.0180535, Final residual = 0.00173315, No Iterations 9
smoothSolver:  Solving for Uz, Initial residual = 0.0154431, Final residual = 0.00149352, No Iterations 9
GAMG:  Solving for p, Initial residual = 0.00910373, Final residual = 6.7936e-05, No Iterations 4
time step continuity errors : sum local = 0.000102077, global = 2.54681e-07, cumulative = -4.17997e-05
smoothSolver:  Solving for omega, Initial residual = 0.000124264, Final residual = 1.17945e-05, No Iterations 3
bounding omega, min: -4.31178 max: 827223 average: 931.752
smoothSolver:  Solving for k, Initial residual = 0.00162591, Final residual = 0.000106822, No Iterations 4
ExecutionTime = 6.21 s  ClockTime = 7 s

forceCoeffs forceCoeffs1 write:
    Cm    = 0.153963
    Cd    = 0.396651
    Cl    = 0.0803987
    Cl(f) = 0.194163
    Cl(r) = -0.113764

Time = 87

smoothSolver:  Solving for Ux, Initial residual = 0.000767688, Final residual = 6.91466e-05, No Iterations 10
smoothSolver:  Solving for Uy, Initial residual = 0.0179212, Final residual = 0.00170781, No Iterations 9
smoothSolver:  Solving for Uz, Initial residual = 0.0152964, Final residual = 0.00147661, No Iterations 9
GAMG:  Solving for p, Initial residual = 0.00906622, Final residual = 6.7892e-05, No Iterations 4
time step continuity errors : sum local = 0.000102165, global = 2.52765e-07, cumulative = -4.15469e-05
smoothSolver:  Solving for omega, Initial residual = 0.000123233, Final residual = 1.16949e-05, No Iterations 3
smoothSolver:  Solving for k, Initial residual = 0.00161273, Final residual = 0.00010622, No Iterations 4
ExecutionTime = 6.27 s  ClockTime = 7 s

forceCoeffs forceCoeffs1 write:
    Cm    = 0.153808
    Cd    = 0.396888
    Cl    = 0.0798944
    Cl(f) = 0.193755
    Cl(r) = -0.113861

Time = 88

smoothSolver:  Solving for Ux, Initial residual = 0.00076083, Final residual = 6.84722e-05, No Iterations 10
smoothSolver:  Solving for Uy, Initial residual = 0.0177188, Final residual = 0.00168198, No Iterations 9
smoothSolver:  Solving for Uz, Initial residual = 0.0151416, Final residual = 0.0014643, No Iterations 9
GAMG:  Solving for p, Initial residual = 0.00900101, Final residual = 6.73062e-05, No Iterations 4
time step continuity errors : sum local = 0.00010141, global = 1.6042e-07, cumulative = -4.13865e-05
smoothSolver:  Solving for omega, Initial residual = 0.000122156, Final residual = 1.15909e-05, No Iterations 3
bounding omega, min: -62.9096 max: 827223 average: 931.349
smoothSolver:  Solving for k, Initial residual = 0.00159875, Final residual = 0.00010544, No Iterations 4
ExecutionTime = 6.34 s  ClockTime = 7 s

forceCoeffs forceCoeffs1 write:
    Cm    = 0.153878
    Cd    = 0.39745
    Cl    = 0.0793886
    Cl(f) = 0.193572
    Cl(r) = -0.114183

Time = 89

smoothSolver:  Solving for Ux, Initial residual = 0.000753466, Final residual = 6.78471e-05, No Iterations 10
smoothSolver:  Solving for Uy, Initial residual = 0.0174259, Final residual = 0.00165546, No Iterations 9
smoothSolver:  Solving for Uz, Initial residual = 0.0149914, Final residual = 0.00145811, No Iterations 9
GAMG:  Solving for p, Initial residual = 0.00891455, Final residual = 6.63648e-05, No Iterations 4
time step continuity errors : sum local = 0.000100091, global = 6.74773e-08, cumulative = -4.1319e-05
smoothSolver:  Solving for omega, Initial residual = 0.000121589, Final residual = 1.15253e-05, No Iterations 3
bounding omega, min: -403.192 max: 827223 average: 931.152
smoothSolver:  Solving for k, Initial residual = 0.0015862, Final residual = 0.000104708, No Iterations 4
ExecutionTime = 6.41 s  ClockTime = 7 s

forceCoeffs forceCoeffs1 write:
    Cm    = 0.154159
    Cd    = 0.398298
    Cl    = 0.0788562
    Cl(f) = 0.193587
    Cl(r) = -0.114731

Time = 90

smoothSolver:  Solving for Ux, Initial residual = 0.00074608, Final residual = 6.72812e-05, No Iterations 10
smoothSolver:  Solving for Uy, Initial residual = 0.0171249, Final residual = 0.0016325, No Iterations 9
smoothSolver:  Solving for Uz, Initial residual = 0.0148609, Final residual = 0.00145913, No Iterations 9
GAMG:  Solving for p, Initial residual = 0.00880543, Final residual = 6.53814e-05, No Iterations 4
time step continuity errors : sum local = 9.86728e-05, global = 2.53155e-08, cumulative = -4.12937e-05
smoothSolver:  Solving for omega, Initial residual = 0.000121082, Final residual = 1.14648e-05, No Iterations 3
smoothSolver:  Solving for k, Initial residual = 0.00157703, Final residual = 0.00010404, No Iterations 4
ExecutionTime = 6.47 s  ClockTime = 7 s

forceCoeffs forceCoeffs1 write:
    Cm    = 0.15463
    Cd    = 0.399362
    Cl    = 0.0782554
    Cl(f) = 0.193757
    Cl(r) = -0.115502

Time = 91

smoothSolver:  Solving for Ux, Initial residual = 0.000737176, Final residual = 6.67616e-05, No Iterations 10
smoothSolver:  Solving for Uy, Initial residual = 0.0168331, Final residual = 0.00161817, No Iterations 9
smoothSolver:  Solving for Uz, Initial residual = 0.0147612, Final residual = 0.00146371, No Iterations 9
GAMG:  Solving for p, Initial residual = 0.00870019, Final residual = 6.49375e-05, No Iterations 4
time step continuity errors : sum local = 9.80266e-05, global = -1.2906e-07, cumulative = -4.14227e-05
smoothSolver:  Solving for omega, Initial residual = 0.00012114, Final residual = 1.14662e-05, No Iterations 3
smoothSolver:  Solving for k, Initial residual = 0.00157283, Final residual = 0.000103521, No Iterations 4
ExecutionTime = 6.53 s  ClockTime = 7 s

forceCoeffs forceCoeffs1 write:
    Cm    = 0.155206
    Cd    = 0.40053
    Cl    = 0.0776351
    Cl(f) = 0.194024
    Cl(r) = -0.116389

Time = 92

smoothSolver:  Solving for Ux, Initial residual = 0.00073012, Final residual = 6.6424e-05, No Iterations 10
smoothSolver:  Solving for Uy, Initial residual = 0.0165885, Final residual = 0.00161212, No Iterations 9
smoothSolver:  Solving for Uz, Initial residual = 0.0146924, Final residual = 0.00146918, No Iterations 9
GAMG:  Solving for p, Initial residual = 0.00860936, Final residual = 6.44627e-05, No Iterations 4
time step continuity errors : sum local = 9.72971e-05, global = -4.90502e-07, cumulative = -4.19132e-05
smoothSolver:  Solving for omega, Initial residual = 0.000120863, Final residual = 1.14481e-05, No Iterations 3
bounding omega, min: -248.235 max: 827223 average: 930.839
smoothSolver:  Solving for k, Initial residual = 0.00157247, Final residual = 0.000103076, No Iterations 4
ExecutionTime = 6.6 s  ClockTime = 7 s

forceCoeffs forceCoeffs1 write:
    Cm    = 0.155819
    Cd    = 0.401637
    Cl    = 0.0770716
    Cl(f) = 0.194355
    Cl(r) = -0.117283

Time = 93

smoothSolver:  Solving for Ux, Initial residual = 0.000724441, Final residual = 6.6298e-05, No Iterations 10
smoothSolver:  Solving for Uy, Initial residual = 0.0164028, Final residual = 0.00160341, No Iterations 9
smoothSolver:  Solving for Uz, Initial residual = 0.0146467, Final residual = 0.00117374, No Iterations 10
GAMG:  Solving for p, Initial residual = 0.00854063, Final residual = 6.4921e-05, No Iterations 4
time step continuity errors : sum local = 9.79533e-05, global = -6.85614e-07, cumulative = -4.25989e-05
smoothSolver:  Solving for omega, Initial residual = 0.000120654, Final residual = 1.1403e-05, No Iterations 3
smoothSolver:  Solving for k, Initial residual = 0.00157226, Final residual = 0.000102495, No Iterations 4
ExecutionTime = 6.67 s  ClockTime = 7 s

forceCoeffs forceCoeffs1 write:
    Cm    = 0.156407
    Cd    = 0.40251
    Cl    = 0.0766701
    Cl(f) = 0.194742
    Cl(r) = -0.118072

Time = 94

smoothSolver:  Solving for Ux, Initial residual = 0.000720718, Final residual = 6.62734e-05, No Iterations 10
smoothSolver:  Solving for Uy, Initial residual = 0.0162393, Final residual = 0.00159474, No Iterations 9
smoothSolver:  Solving for Uz, Initial residual = 0.0145292, Final residual = 0.00116177, No Iterations 10
GAMG:  Solving for p, Initial residual = 0.00845783, Final residual = 6.44661e-05, No Iterations 4
time step continuity errors : sum local = 9.71777e-05, global = -5.54076e-07, cumulative = -4.31529e-05
smoothSolver:  Solving for omega, Initial residual = 0.000120655, Final residual = 1.13223e-05, No Iterations 3
smoothSolver:  Solving for k, Initial residual = 0.00157178, Final residual = 0.000101657, No Iterations 4
ExecutionTime = 6.73 s  ClockTime = 7 s

forceCoeffs forceCoeffs1 write:
    Cm    = 0.156861
    Cd    = 0.403104
    Cl    = 0.0763725
    Cl(f) = 0.195047
    Cl(r) = -0.118674

Time = 95

smoothSolver:  Solving for Ux, Initial residual = 0.000717773, Final residual = 6.62802e-05, No Iterations 10
smoothSolver:  Solving for Uy, Initial residual = 0.0161002, Final residual = 0.00158364, No Iterations 9
smoothSolver:  Solving for Uz, Initial residual = 0.0144458, Final residual = 0.00144269, No Iterations 9
GAMG:  Solving for p, Initial residual = 0.00839214, Final residual = 6.35644e-05, No Iterations 4
time step continuity errors : sum local = 9.56866e-05, global = -3.26061e-07, cumulative = -4.3479e-05
smoothSolver:  Solving for omega, Initial residual = 0.000120718, Final residual = 1.1294e-05, No Iterations 3
smoothSolver:  Solving for k, Initial residual = 0.00156757, Final residual = 0.000100711, No Iterations 4
ExecutionTime = 6.8 s  ClockTime = 7 s

forceCoeffs forceCoeffs1 write:
    Cm    = 0.157173
    Cd    = 0.403426
    Cl    = 0.0761554
    Cl(f) = 0.19525
    Cl(r) = -0.119095

Time = 96

smoothSolver:  Solving for Ux, Initial residual = 0.000713917, Final residual = 6.60196e-05, No Iterations 10
smoothSolver:  Solving for Uy, Initial residual = 0.0159419, Final residual = 0.00156146, No Iterations 9
smoothSolver:  Solving for Uz, Initial residual = 0.0144528, Final residual = 0.00144441, No Iterations 9
GAMG:  Solving for p, Initial residual = 0.00834624, Final residual = 6.34181e-05, No Iterations 4
time step continuity errors : sum local = 9.53291e-05, global = -1.51732e-07, cumulative = -4.36307e-05
smoothSolver:  Solving for omega, Initial residual = 0.000120708, Final residual = 1.12847e-05, No Iterations 3
smoothSolver:  Solving for k, Initial residual = 0.00156053, Final residual = 9.98497e-05, No Iterations 4
ExecutionTime = 6.87 s  ClockTime = 7 s

forceCoeffs forceCoeffs1 write:
    Cm    = 0.15736
    Cd    = 0.403531
    Cl    = 0.0760059
    Cl(f) = 0.195363
    Cl(r) = -0.119357

Time = 97

smoothSolver:  Solving for Ux, Initial residual = 0.00070925, Final residual = 6.54738e-05, No Iterations 10
smoothSolver:  Solving for Uy, Initial residual = 0.0157396, Final residual = 0.00153082, No Iterations 9
smoothSolver:  Solving for Uz, Initial residual = 0.0144531, Final residual = 0.0014437, No Iterations 9
GAMG:  Solving for p, Initial residual = 0.0083086, Final residual = 6.27329e-05, No Iterations 4
time step continuity errors : sum local = 9.4184e-05, global = -1.42517e-07, cumulative = -4.37732e-05
smoothSolver:  Solving for omega, Initial residual = 0.000120974, Final residual = 1.13033e-05, No Iterations 3
smoothSolver:  Solving for k, Initial residual = 0.00155152, Final residual = 9.91646e-05, No Iterations 4
ExecutionTime = 6.93 s  ClockTime = 7 s

forceCoeffs forceCoeffs1 write:
    Cm    = 0.157372
    Cd    = 0.40347
    Cl    = 0.0760184
    Cl(f) = 0.195381
    Cl(r) = -0.119363

Time = 98

smoothSolver:  Solving for Ux, Initial residual = 0.000703903, Final residual = 6.4759e-05, No Iterations 10
smoothSolver:  Solving for Uy, Initial residual = 0.0155327, Final residual = 0.00149765, No Iterations 9
smoothSolver:  Solving for Uz, Initial residual = 0.0144431, Final residual = 0.00143752, No Iterations 9
GAMG:  Solving for p, Initial residual = 0.00827031, Final residual = 6.2042e-05, No Iterations 4
time step continuity errors : sum local = 9.3033e-05, global = -1.79812e-07, cumulative = -4.39531e-05
smoothSolver:  Solving for omega, Initial residual = 0.000121402, Final residual = 1.1341e-05, No Iterations 3
bounding omega, min: -104.197 max: 827223 average: 931.296
smoothSolver:  Solving for k, Initial residual = 0.00154222, Final residual = 9.83889e-05, No Iterations 4
ExecutionTime = 7 s  ClockTime = 7 s

forceCoeffs forceCoeffs1 write:
    Cm    = 0.157217
    Cd    = 0.403324
    Cl    = 0.0762844
    Cl(f) = 0.195359
    Cl(r) = -0.119075

Time = 99

smoothSolver:  Solving for Ux, Initial residual = 0.000700169, Final residual = 6.40312e-05, No Iterations 10
smoothSolver:  Solving for Uy, Initial residual = 0.0153579, Final residual = 0.00147451, No Iterations 9
smoothSolver:  Solving for Uz, Initial residual = 0.0144334, Final residual = 0.00143207, No Iterations 9
GAMG:  Solving for p, Initial residual = 0.00823814, Final residual = 6.14313e-05, No Iterations 4
time step continuity errors : sum local = 9.19828e-05, global = -2.24992e-07, cumulative = -4.4178e-05
smoothSolver:  Solving for omega, Initial residual = 0.000122022, Final residual = 1.13502e-05, No Iterations 3
smoothSolver:  Solving for k, Initial residual = 0.00153266, Final residual = 9.73351e-05, No Iterations 4
ExecutionTime = 7.07 s  ClockTime = 8 s

forceCoeffs forceCoeffs1 write:
    Cm    = 0.156936
    Cd    = 0.403147
    Cl    = 0.0768917
    Cl(f) = 0.195382
    Cl(r) = -0.11849

Time = 100

smoothSolver:  Solving for Ux, Initial residual = 0.000697857, Final residual = 6.34537e-05, No Iterations 10
smoothSolver:  Solving for Uy, Initial residual = 0.0152494, Final residual = 0.0014606, No Iterations 9
smoothSolver:  Solving for Uz, Initial residual = 0.0144335, Final residual = 0.00143083, No Iterations 9
GAMG:  Solving for p, Initial residual = 0.00822562, Final residual = 6.12521e-05, No Iterations 4
time step continuity errors : sum local = 9.15526e-05, global = -3.71593e-07, cumulative = -4.45496e-05
smoothSolver:  Solving for omega, Initial residual = 0.000122754, Final residual = 1.13812e-05, No Iterations 3
smoothSolver:  Solving for k, Initial residual = 0.00152171, Final residual = 9.61206e-05, No Iterations 4
ExecutionTime = 7.14 s  ClockTime = 8 s

forceCoeffs forceCoeffs1 write:
    Cm    = 0.156554
    Cd    = 0.402993
    Cl    = 0.07779
    Cl(f) = 0.195449
    Cl(r) = -0.117659

End

Finalising parallel run
