/*---------------------------------------------------------------------------*\
  =========                 |
  \\      /  F ield         | OpenFOAM: The Open Source CFD Toolbox
   \\    /   O peration     | Website:  https://openfoam.org
    \\  /    A nd           | Version:  7
     \\/     M anipulation  |
\*---------------------------------------------------------------------------*/
Build  : 7
Exec   : decomposePar
Date   : Oct 14 2020
Time   : 15:55:22
Host   : "cpu-p-288"
PID    : 223249
I/O    : uncollated
Case   : /rds/user/hpcbras1/hpc-work/csd3/cclake-ib-gcc9-ompi3-ucx/openfoam/Openfoam_Mbike_csd3_cclake_ib_gcc9_ompi3_ucx_1792_56
nProcs : 1
sigFpe : Enabling floating point exception trapping (FOAM_SIGFPE).
fileModificationChecking : Monitoring run-time modified files using timeStampMaster (fileModificationSkew 10)
allowSystemOperations : Allowing user-supplied system call operations

// * * * * * * * * * * * * * * * * * * * * * * * * * * * * * * * * * * * * * //
Create time



Decomposing mesh region0

Create mesh

Calculating distribution of cells
 Foam::decompositionMethod::New 
{
    numberOfSubdomains 1792;
    method          scotch;
    simpleCoeffs
    {
        n               ( 4 1 1 );
        delta           0.001;
    }
    hierarchicalCoeffs
    {
        n               ( 3 2 1 );
        delta           0.001;
        order           xyz;
    }
    manualCoeffs
    {
        dataFile        "cellDecomposition";
    }
}

Selecting decompositionMethod scotch

Finished decomposition in 0.1 s

Calculating original mesh data

Distributing cells to processors

Distributing faces to processors

Distributing points to processors

Constructing processor meshes

Processor 0
    Number of cells = 5
    Number of faces shared with processor 2 = 4
    Number of faces shared with processor 3 = 3
    Number of faces shared with processor 4 = 1
    Number of faces shared with processor 7 = 2
    Number of faces shared with processor 12 = 1
    Number of faces shared with processor 180 = 1
    Number of faces shared with processor 181 = 1
    Number of faces shared with processor 108 = 2
    Number of processor patches = 8
    Number of processor faces = 15
    Number of boundary faces = 5

Processor 1
    Number of cells = 6
    Number of faces shared with processor 2 = 6
    Number of faces shared with processor 5 = 4
    Number of faces shared with processor 8 = 3
    Number of faces shared with processor 169 = 1
    Number of faces shared with processor 170 = 2
    Number of faces shared with processor 48 = 4
    Number of faces shared with processor 111 = 2
    Number of processor patches = 7
    Number of processor faces = 22
    Number of boundary faces = 0

Processor 2
    Number of cells = 6
    Number of faces shared with processor 0 = 4
    Number of faces shared with processor 1 = 6
    Number of faces shared with processor 3 = 2
    Number of faces shared with processor 7 = 2
    Number of faces shared with processor 8 = 1
    Number of faces shared with processor 169 = 1
    Number of faces shared with processor 180 = 1
    Number of faces shared with processor 181 = 1
    Number of faces shared with processor 108 = 2
    Number of faces shared with processor 111 = 2
    Number of processor patches = 10
    Number of processor faces = 22
    Number of boundary faces = 0

Processor 3
    Number of cells = 5
    Number of faces shared with processor 0 = 3
    Number of faces shared with processor 2 = 2
    Number of faces shared with processor 4 = 5
    Number of faces shared with processor 5 = 3
    Number of faces shared with processor 6 = 1
    Number of faces shared with processor 12 = 2
    Number of faces shared with processor 175 = 1
    Number of faces shared with processor 181 = 2
    Number of processor patches = 8
    Number of processor faces = 19
    Number of boundary faces = 1

Processor 4
    Number of cells = 6
    Number of faces shared with processor 0 = 1
    Number of faces shared with processor 3 = 5
    Number of faces shared with processor 6 = 2
    Number of faces shared with processor 12 = 3
    Number of faces shared with processor 938 = 1
    Number of faces shared with processor 939 = 1
    Number of faces shared with processor 175 = 3
    Number of faces shared with processor 946 = 1
    Number of faces shared with processor 947 = 1
    Number of processor patches = 9
    Number of processor faces = 18
    Number of boundary faces = 4

Processor 5
    Number of cells = 6
    Number of faces shared with processor 1 = 4
    Number of faces shared with processor 3 = 3
    Number of faces shared with processor 6 = 6
    Number of faces shared with processor 10 = 2
    Number of faces shared with processor 170 = 2
    Number of faces shared with processor 42 = 1
    Number of faces shared with processor 171 = 2
    Number of faces shared with processor 47 = 2
    Number of processor patches = 8
    Number of processor faces = 22
    Number of boundary faces = 0

Processor 6
    Number of cells = 6
    Number of faces shared with processor 3 = 1
    Number of faces shared with processor 4 = 2
    Number of faces shared with processor 5 = 6
    Number of faces shared with processor 11 = 4
    Number of faces shared with processor 932 = 1
    Number of faces shared with processor 938 = 1
    Number of faces shared with processor 42 = 1
    Number of faces shared with processor 171 = 2
    Number of faces shared with processor 43 = 1
    Number of faces shared with processor 44 = 1
    Number of faces shared with processor 945 = 1
    Number of faces shared with processor 947 = 1
    Number of processor patches = 12
    Number of processor faces = 22
    Number of boundary faces = 0

Processor 7
    Number of cells = 5
    Number of faces shared with processor 0 = 2
    Number of faces shared with processor 2 = 2
    Number of faces shared with processor 8 = 2
    Number of faces shared with processor 9 = 3
    Number of faces shared with processor 12 = 2
    Number of faces shared with processor 13 = 1
    Number of faces shared with processor 23 = 3
    Number of faces shared with processor 106 = 1
    Number of faces shared with processor 107 = 1
    Number of processor patches = 9
    Number of processor faces = 17
    Number of boundary faces = 3

Processor 8
    Number of cells = 6
    Number of faces shared with processor 1 = 3
    Number of faces shared with processor 2 = 1
    Number of faces shared with processor 7 = 2
    Number of faces shared with processor 9 = 4
    Number of faces shared with processor 10 = 3
    Number of faces shared with processor 18 = 2
    Number of faces shared with processor 45 = 2
    Number of faces shared with processor 46 = 2
    Number of faces shared with processor 105 = 3
    Number of processor patches = 9
    Number of processor faces = 22
    Number of boundary faces = 0

Processor 9
    Number of cells = 6
    Number of faces shared with processor 7 = 3
    Number of faces shared with processor 8 = 4
    Number of faces shared with processor 10 = 1
    Number of faces shared with processor 13 = 1
    Number of faces shared with processor 17 = 2
    Number of faces shared with processor 18 = 3
    Number of faces shared with processor 22 = 1
    Number of faces shared with processor 23 = 4
    Number of faces shared with processor 24 = 1
    Number of faces shared with processor 105 = 1
    Number of faces shared with processor 106 = 1
    Number of processor patches = 11
    Number of processor faces = 22
    Number of boundary faces = 0

Processor 10
    Number of cells = 5
    Number of faces shared with processor 5 = 2
    Number of faces shared with processor 8 = 3
    Number of faces shared with processor 9 = 1
    Number of faces shared with processor 11 = 5
    Number of faces shared with processor 12 = 1
    Number of faces shared with processor 13 = 2
    Number of faces shared with processor 14 = 2
    Number of faces shared with processor 17 = 2
    Number of faces shared with processor 46 = 1
    Number of faces shared with processor 47 = 1
    Number of processor patches = 10
    Number of processor faces = 20
    Number of boundary faces = 0

Processor 11
    Number of cells = 6
    Number of faces shared with processor 6 = 4
    Number of faces shared with processor 10 = 5
    Number of faces shared with processor 12 = 2
    Number of faces shared with processor 14 = 4
    Number of faces shared with processor 936 = 2
    Number of faces shared with processor 938 = 1
    Number of faces shared with processor 43 = 2
    Number of faces shared with processor 44 = 2
    Number of processor patches = 8
    Number of processor faces = 22
    Number of boundary faces = 0

Processor 12
    Number of cells = 6
    Number of faces shared with processor 0 = 1
    Number of faces shared with processor 3 = 2
    Number of faces shared with processor 4 = 3
    Number of faces shared with processor 7 = 2
    Number of faces shared with processor 10 = 1
    Number of faces shared with processor 11 = 2
    Number of faces shared with processor 13 = 6
    Number of faces shared with processor 939 = 2
    Number of processor patches = 8
    Number of processor faces = 19
    Number of boundary faces = 3

Processor 13
    Number of cells = 6
    Number of faces shared with processor 7 = 1
    Number of faces shared with processor 9 = 1
    Number of faces shared with processor 10 = 2
    Number of faces shared with processor 12 = 6
    Number of faces shared with processor 14 = 1
    Number of faces shared with processor 24 = 4
    Number of faces shared with processor 25 = 2
    Number of faces shared with processor 940 = 2
    Number of processor patches = 8
    Number of processor faces = 19
    Number of boundary faces = 3

Processor 14
    Number of cells = 5
    Number of faces shared with processor 10 = 2
    Number of faces shared with processor 906 = 1
    Number of faces shared with processor 11 = 4
    Number of faces shared with processor 13 = 1
    Number of faces shared with processor 16 = 4
    Number of faces shared with processor 17 = 2
    Number of faces shared with processor 914 = 1
    Number of faces shared with processor 24 = 1
    Number of faces shared with processor 25 = 1
    Number of faces shared with processor 37 = 2
    Number of faces shared with processor 940 = 1
    Number of processor patches = 11
    Number of processor faces = 20
    Number of boundary faces = 0

Processor 15
    Number of cells = 6
    Number of faces shared with processor 908 = 1
    Number of faces shared with processor 909 = 1
    Number of faces shared with processor 910 = 1
    Number of faces shared with processor 16 = 6
    Number of faces shared with processor 913 = 1
    Number of faces shared with processor 19 = 2
    Number of faces shared with processor 27 = 3
    Number of faces shared with processor 31 = 2
    Number of faces shared with processor 32 = 1
    Number of processor patches = 9
    Number of processor faces = 18
    Number of boundary faces = 4

Processor 16
    Number of cells = 6
    Number of faces shared with processor 906 = 1
    Number of faces shared with processor 14 = 4
    Number of faces shared with processor 15 = 6
    Number of faces shared with processor 17 = 2
    Number of faces shared with processor 914 = 1
    Number of faces shared with processor 19 = 2
    Number of faces shared with processor 25 = 2
    Number of faces shared with processor 26 = 1
    Number of faces shared with processor 31 = 1
    Number of faces shared with processor 36 = 1
    Number of faces shared with processor 37 = 1
    Number of processor patches = 11
    Number of processor faces = 22
    Number of boundary faces = 0

Processor 17
    Number of cells = 5
    Number of faces shared with processor 9 = 2
    Number of faces shared with processor 10 = 2
    Number of faces shared with processor 14 = 2
    Number of faces shared with processor 16 = 2
    Number of faces shared with processor 18 = 4
    Number of faces shared with processor 19 = 3
    Number of faces shared with processor 22 = 1
    Number of faces shared with processor 24 = 1
    Number of faces shared with processor 26 = 1
    Number of faces shared with processor 36 = 2
    Number of processor patches = 10
    Number of processor faces = 20
    Number of boundary faces = 0

Processor 18
    Number of cells = 6
    Number of faces shared with processor 8 = 2
    Number of faces shared with processor 9 = 3
    Number of faces shared with processor 17 = 4
    Number of faces shared with processor 19 = 1
    Number of faces shared with processor 20 = 2
    Number of faces shared with processor 22 = 1
    Number of faces shared with processor 23 = 1
    Number of faces shared with processor 35 = 3
    Number of faces shared with processor 45 = 1
    Number of faces shared with processor 63 = 2
    Number of faces shared with processor 65 = 2
    Number of processor patches = 11
    Number of processor faces = 22
    Number of boundary faces = 0

Processor 19
    Number of cells = 6
    Number of faces shared with processor 15 = 2
    Number of faces shared with processor 16 = 2
    Number of faces shared with processor 17 = 3
    Number of faces shared with processor 18 = 1
    Number of faces shared with processor 20 = 6
    Number of faces shared with processor 21 = 1
    Number of faces shared with processor 22 = 1
    Number of faces shared with processor 26 = 1
    Number of faces shared with processor 28 = 2
    Number of faces shared with processor 32 = 1
    Number of processor patches = 10
    Number of processor faces = 20
    Number of boundary faces = 2

Processor 20
    Number of cells = 6
    Number of faces shared with processor 18 = 2
    Number of faces shared with processor 19 = 6
    Number of faces shared with processor 21 = 2
    Number of faces shared with processor 22 = 1
    Number of faces shared with processor 28 = 3
    Number of faces shared with processor 67 = 4
    Number of processor patches = 6
    Number of processor faces = 18
    Number of boundary faces = 4

Processor 21
    Number of cells = 5
    Number of faces shared with processor 19 = 1
    Number of faces shared with processor 20 = 2
    Number of faces shared with processor 22 = 4
    Number of faces shared with processor 26 = 3
    Number of faces shared with processor 27 = 1
    Number of faces shared with processor 68 = 2
    Number of processor patches = 6
    Number of processor faces = 13
    Number of boundary faces = 7

Processor 22
    Number of cells = 6
    Number of faces shared with processor 9 = 1
    Number of faces shared with processor 17 = 1
    Number of faces shared with processor 18 = 1
    Number of faces shared with processor 19 = 1
    Number of faces shared with processor 20 = 1
    Number of faces shared with processor 21 = 4
    Number of faces shared with processor 23 = 5
    Number of faces shared with processor 26 = 3
    Number of faces shared with processor 65 = 1
    Number of faces shared with processor 68 = 2
    Number of processor patches = 10
    Number of processor faces = 20
    Number of boundary faces = 2

Processor 23
    Number of cells = 6
    Number of faces shared with processor 7 = 3
    Number of faces shared with processor 9 = 4
    Number of faces shared with processor 18 = 1
    Number of faces shared with processor 22 = 5
    Number of faces shared with processor 24 = 2
    Number of faces shared with processor 64 = 2
    Number of faces shared with processor 65 = 1
    Number of faces shared with processor 107 = 1
    Number of processor patches = 8
    Number of processor faces = 19
    Number of boundary faces = 5

Processor 24
    Number of cells = 5
    Number of faces shared with processor 9 = 1
    Number of faces shared with processor 13 = 4
    Number of faces shared with processor 14 = 1
    Number of faces shared with processor 17 = 1
    Number of faces shared with processor 23 = 2
    Number of faces shared with processor 25 = 5
    Number of faces shared with processor 26 = 3
    Number of processor patches = 7
    Number of processor faces = 17
    Number of boundary faces = 3

Processor 25
    Number of cells = 6
    Number of faces shared with processor 13 = 2
    Number of faces shared with processor 14 = 1
    Number of faces shared with processor 16 = 2
    Number of faces shared with processor 914 = 4
    Number of faces shared with processor 24 = 5
    Number of faces shared with processor 26 = 3
    Number of faces shared with processor 27 = 2
    Number of processor patches = 7
    Number of processor faces = 19
    Number of boundary faces = 3

Processor 26
    Number of cells = 6
    Number of faces shared with processor 16 = 1
    Number of faces shared with processor 17 = 1
    Number of faces shared with processor 19 = 1
    Number of faces shared with processor 21 = 3
    Number of faces shared with processor 22 = 3
    Number of faces shared with processor 24 = 3
    Number of faces shared with processor 25 = 3
    Number of faces shared with processor 27 = 5
    Number of processor patches = 8
    Number of processor faces = 20
    Number of boundary faces = 4

Processor 27
    Number of cells = 6
    Number of faces shared with processor 15 = 3
    Number of faces shared with processor 913 = 4
    Number of faces shared with processor 21 = 1
    Number of faces shared with processor 25 = 2
    Number of faces shared with processor 26 = 5
    Number of processor patches = 5
    Number of processor faces = 15
    Number of boundary faces = 7

Processor 28
    Number of cells = 5
    Number of faces shared with processor 19 = 2
    Number of faces shared with processor 20 = 3
    Number of faces shared with processor 29 = 2
    Number of faces shared with processor 30 = 2
    Number of faces shared with processor 31 = 1
    Number of faces shared with processor 32 = 3
    Number of faces shared with processor 35 = 2
    Number of faces shared with processor 36 = 1
    Number of faces shared with processor 71 = 2
    Number of processor patches = 9
    Number of processor faces = 18
    Number of boundary faces = 2

Processor 29
    Number of cells = 6
    Number of faces shared with processor 386 = 1
    Number of faces shared with processor 387 = 1
    Number of faces shared with processor 28 = 2
    Number of faces shared with processor 30 = 6
    Number of faces shared with processor 41 = 3
    Number of faces shared with processor 71 = 3
    Number of faces shared with processor 74 = 3
    Number of processor patches = 7
    Number of processor faces = 19
    Number of boundary faces = 3

Processor 30
    Number of cells = 6
    Number of faces shared with processor 387 = 2
    Number of faces shared with processor 28 = 2
    Number of faces shared with processor 29 = 6
    Number of faces shared with processor 32 = 2
    Number of faces shared with processor 33 = 4
    Number of faces shared with processor 35 = 1
    Number of faces shared with processor 40 = 2
    Number of processor patches = 7
    Number of processor faces = 19
    Number of boundary faces = 3

Processor 31
    Number of cells = 5
    Number of faces shared with processor 904 = 1
    Number of faces shared with processor 905 = 1
    Number of faces shared with processor 908 = 1
    Number of faces shared with processor 909 = 1
    Number of faces shared with processor 15 = 2
    Number of faces shared with processor 16 = 1
    Number of faces shared with processor 28 = 1
    Number of faces shared with processor 32 = 5
    Number of faces shared with processor 34 = 2
    Number of faces shared with processor 36 = 1
    Number of faces shared with processor 37 = 2
    Number of processor patches = 11
    Number of processor faces = 18
    Number of boundary faces = 2

Processor 32
    Number of cells = 6
    Number of faces shared with processor 15 = 1
    Number of faces shared with processor 19 = 1
    Number of faces shared with processor 28 = 3
    Number of faces shared with processor 30 = 2
    Number of faces shared with processor 31 = 5
    Number of faces shared with processor 33 = 3
    Number of faces shared with processor 34 = 1
    Number of faces shared with processor 36 = 2
    Number of processor patches = 8
    Number of processor faces = 18
    Number of boundary faces = 4

Processor 33
    Number of cells = 6
    Number of faces shared with processor 384 = 1
    Number of faces shared with processor 30 = 4
    Number of faces shared with processor 32 = 3
    Number of faces shared with processor 34 = 6
    Number of faces shared with processor 39 = 2
    Number of faces shared with processor 40 = 2
    Number of faces shared with processor 383 = 2
    Number of processor patches = 7
    Number of processor faces = 20
    Number of boundary faces = 2

Processor 34
    Number of cells = 6
    Number of faces shared with processor 384 = 2
    Number of faces shared with processor 904 = 1
    Number of faces shared with processor 905 = 1
    Number of faces shared with processor 31 = 2
    Number of faces shared with processor 32 = 1
    Number of faces shared with processor 33 = 6
    Number of faces shared with processor 39 = 2
    Number of faces shared with processor 1083 = 1
    Number of faces shared with processor 1084 = 1
    Number of faces shared with processor 383 = 1
    Number of processor patches = 10
    Number of processor faces = 18
    Number of boundary faces = 4

Processor 35
    Number of cells = 5
    Number of faces shared with processor 18 = 3
    Number of faces shared with processor 28 = 2
    Number of faces shared with processor 30 = 1
    Number of faces shared with processor 36 = 4
    Number of faces shared with processor 40 = 1
    Number of faces shared with processor 41 = 3
    Number of faces shared with processor 45 = 2
    Number of faces shared with processor 46 = 2
    Number of faces shared with processor 49 = 1
    Number of faces shared with processor 73 = 1
    Number of processor patches = 10
    Number of processor faces = 20
    Number of boundary faces = 0

Processor 36
    Number of cells = 6
    Number of faces shared with processor 16 = 1
    Number of faces shared with processor 17 = 2
    Number of faces shared with processor 28 = 1
    Number of faces shared with processor 31 = 1
    Number of faces shared with processor 32 = 2
    Number of faces shared with processor 35 = 4
    Number of faces shared with processor 37 = 6
    Number of faces shared with processor 38 = 1
    Number of faces shared with processor 39 = 1
    Number of faces shared with processor 40 = 1
    Number of faces shared with processor 46 = 2
    Number of processor patches = 11
    Number of processor faces = 22
    Number of boundary faces = 0

Processor 37
    Number of cells = 6
    Number of faces shared with processor 903 = 2
    Number of faces shared with processor 904 = 1
    Number of faces shared with processor 906 = 1
    Number of faces shared with processor 14 = 2
    Number of faces shared with processor 16 = 1
    Number of faces shared with processor 31 = 2
    Number of faces shared with processor 36 = 6
    Number of faces shared with processor 38 = 2
    Number of faces shared with processor 39 = 1
    Number of faces shared with processor 43 = 2
    Number of faces shared with processor 44 = 2
    Number of processor patches = 11
    Number of processor faces = 22
    Number of boundary faces = 0

Processor 38
    Number of cells = 5
    Number of faces shared with processor 903 = 1
    Number of faces shared with processor 36 = 1
    Number of faces shared with processor 37 = 2
    Number of faces shared with processor 934 = 1
    Number of faces shared with processor 39 = 4
    Number of faces shared with processor 40 = 2
    Number of faces shared with processor 43 = 1
    Number of faces shared with processor 44 = 1
    Number of faces shared with processor 49 = 1
    Number of faces shared with processor 54 = 3
    Number of faces shared with processor 55 = 3
    Number of processor patches = 11
    Number of processor faces = 20
    Number of boundary faces = 0

Processor 39
    Number of cells = 6
    Number of faces shared with processor 904 = 1
    Number of faces shared with processor 33 = 2
    Number of faces shared with processor 34 = 2
    Number of faces shared with processor 36 = 1
    Number of faces shared with processor 37 = 1
    Number of faces shared with processor 38 = 4
    Number of faces shared with processor 40 = 3
    Number of faces shared with processor 1079 = 2
    Number of faces shared with processor 55 = 2
    Number of faces shared with processor 367 = 1
    Number of faces shared with processor 381 = 1
    Number of faces shared with processor 382 = 2
    Number of processor patches = 12
    Number of processor faces = 22
    Number of boundary faces = 0

Processor 40
    Number of cells = 6
    Number of faces shared with processor 391 = 2
    Number of faces shared with processor 30 = 2
    Number of faces shared with processor 33 = 2
    Number of faces shared with processor 35 = 1
    Number of faces shared with processor 36 = 1
    Number of faces shared with processor 38 = 2
    Number of faces shared with processor 39 = 3
    Number of faces shared with processor 41 = 3
    Number of faces shared with processor 49 = 3
    Number of faces shared with processor 54 = 1
    Number of faces shared with processor 382 = 2
    Number of processor patches = 11
    Number of processor faces = 22
    Number of boundary faces = 0

Processor 41
    Number of cells = 6
    Number of faces shared with processor 391 = 2
    Number of faces shared with processor 29 = 3
    Number of faces shared with processor 35 = 3
    Number of faces shared with processor 40 = 3
    Number of faces shared with processor 45 = 2
    Number of faces shared with processor 49 = 3
    Number of faces shared with processor 73 = 3
    Number of faces shared with processor 74 = 3
    Number of processor patches = 8
    Number of processor faces = 22
    Number of boundary faces = 0

Processor 42
    Number of cells = 5
    Number of faces shared with processor 5 = 1
    Number of faces shared with processor 6 = 1
    Number of faces shared with processor 931 = 1
    Number of faces shared with processor 933 = 1
    Number of faces shared with processor 43 = 2
    Number of faces shared with processor 44 = 2
    Number of faces shared with processor 47 = 4
    Number of faces shared with processor 52 = 1
    Number of faces shared with processor 53 = 2
    Number of faces shared with processor 217 = 1
    Number of faces shared with processor 221 = 4
    Number of processor patches = 11
    Number of processor faces = 20
    Number of boundary faces = 0

Processor 43
    Number of cells = 6
    Number of faces shared with processor 6 = 1
    Number of faces shared with processor 11 = 2
    Number of faces shared with processor 37 = 2
    Number of faces shared with processor 38 = 1
    Number of faces shared with processor 42 = 2
    Number of faces shared with processor 44 = 6
    Number of faces shared with processor 46 = 2
    Number of faces shared with processor 47 = 4
    Number of faces shared with processor 53 = 1
    Number of faces shared with processor 54 = 1
    Number of processor patches = 10
    Number of processor faces = 22
    Number of boundary faces = 0

Processor 44
    Number of cells = 6
    Number of faces shared with processor 6 = 1
    Number of faces shared with processor 11 = 2
    Number of faces shared with processor 932 = 2
    Number of faces shared with processor 37 = 2
    Number of faces shared with processor 934 = 2
    Number of faces shared with processor 38 = 1
    Number of faces shared with processor 936 = 2
    Number of faces shared with processor 42 = 2
    Number of faces shared with processor 43 = 6
    Number of faces shared with processor 55 = 2
    Number of processor patches = 10
    Number of processor faces = 22
    Number of boundary faces = 0

Processor 45
    Number of cells = 5
    Number of faces shared with processor 8 = 2
    Number of faces shared with processor 18 = 1
    Number of faces shared with processor 35 = 2
    Number of faces shared with processor 41 = 2
    Number of faces shared with processor 46 = 4
    Number of faces shared with processor 48 = 2
    Number of faces shared with processor 49 = 1
    Number of faces shared with processor 51 = 1
    Number of faces shared with processor 73 = 1
    Number of faces shared with processor 91 = 2
    Number of faces shared with processor 93 = 2
    Number of processor patches = 11
    Number of processor faces = 20
    Number of boundary faces = 0

Processor 46
    Number of cells = 6
    Number of faces shared with processor 8 = 2
    Number of faces shared with processor 10 = 1
    Number of faces shared with processor 35 = 2
    Number of faces shared with processor 36 = 2
    Number of faces shared with processor 43 = 2
    Number of faces shared with processor 45 = 4
    Number of faces shared with processor 47 = 4
    Number of faces shared with processor 48 = 2
    Number of faces shared with processor 49 = 1
    Number of faces shared with processor 51 = 1
    Number of faces shared with processor 54 = 1
    Number of processor patches = 11
    Number of processor faces = 22
    Number of boundary faces = 0

Processor 47
    Number of cells = 6
    Number of faces shared with processor 5 = 2
    Number of faces shared with processor 10 = 1
    Number of faces shared with processor 42 = 4
    Number of faces shared with processor 43 = 4
    Number of faces shared with processor 46 = 4
    Number of faces shared with processor 48 = 5
    Number of faces shared with processor 50 = 1
    Number of faces shared with processor 52 = 2
    Number of faces shared with processor 54 = 1
    Number of faces shared with processor 217 = 1
    Number of faces shared with processor 220 = 1
    Number of processor patches = 11
    Number of processor faces = 26
    Number of boundary faces = 0

Processor 48
    Number of cells = 6
    Number of faces shared with processor 1 = 4
    Number of faces shared with processor 45 = 2
    Number of faces shared with processor 46 = 2
    Number of faces shared with processor 47 = 5
    Number of faces shared with processor 50 = 2
    Number of faces shared with processor 51 = 2
    Number of faces shared with processor 217 = 2
    Number of faces shared with processor 92 = 3
    Number of processor patches = 8
    Number of processor faces = 22
    Number of boundary faces = 0

Processor 49
    Number of cells = 5
    Number of faces shared with processor 35 = 1
    Number of faces shared with processor 38 = 1
    Number of faces shared with processor 40 = 3
    Number of faces shared with processor 41 = 3
    Number of faces shared with processor 45 = 1
    Number of faces shared with processor 46 = 1
    Number of faces shared with processor 51 = 4
    Number of faces shared with processor 54 = 2
    Number of faces shared with processor 88 = 2
    Number of faces shared with processor 374 = 1
    Number of faces shared with processor 376 = 1
    Number of processor patches = 11
    Number of processor faces = 20
    Number of boundary faces = 0

Processor 50
    Number of cells = 6
    Number of faces shared with processor 47 = 1
    Number of faces shared with processor 48 = 2
    Number of faces shared with processor 51 = 5
    Number of faces shared with processor 52 = 4
    Number of faces shared with processor 333 = 1
    Number of faces shared with processor 216 = 3
    Number of faces shared with processor 217 = 1
    Number of faces shared with processor 89 = 2
    Number of faces shared with processor 90 = 1
    Number of faces shared with processor 92 = 1
    Number of faces shared with processor 371 = 1
    Number of faces shared with processor 375 = 1
    Number of faces shared with processor 376 = 1
    Number of processor patches = 13
    Number of processor faces = 24
    Number of boundary faces = 0

Processor 51
    Number of cells = 6
    Number of faces shared with processor 45 = 1
    Number of faces shared with processor 46 = 1
    Number of faces shared with processor 48 = 2
    Number of faces shared with processor 49 = 4
    Number of faces shared with processor 50 = 5
    Number of faces shared with processor 52 = 2
    Number of faces shared with processor 54 = 2
    Number of faces shared with processor 88 = 2
    Number of faces shared with processor 90 = 1
    Number of faces shared with processor 374 = 1
    Number of faces shared with processor 376 = 1
    Number of processor patches = 11
    Number of processor faces = 22
    Number of boundary faces = 0

Processor 52
    Number of cells = 5
    Number of faces shared with processor 42 = 1
    Number of faces shared with processor 47 = 2
    Number of faces shared with processor 50 = 4
    Number of faces shared with processor 51 = 2
    Number of faces shared with processor 53 = 4
    Number of faces shared with processor 54 = 2
    Number of faces shared with processor 333 = 1
    Number of faces shared with processor 216 = 3
    Number of faces shared with processor 375 = 1
    Number of processor patches = 9
    Number of processor faces = 20
    Number of boundary faces = 0

Processor 53
    Number of cells = 6
    Number of faces shared with processor 933 = 1
    Number of faces shared with processor 42 = 2
    Number of faces shared with processor 1066 = 1
    Number of faces shared with processor 43 = 1
    Number of faces shared with processor 52 = 4
    Number of faces shared with processor 54 = 2
    Number of faces shared with processor 55 = 4
    Number of faces shared with processor 331 = 2
    Number of faces shared with processor 211 = 2
    Number of faces shared with processor 212 = 2
    Number of faces shared with processor 368 = 1
    Number of processor patches = 11
    Number of processor faces = 22
    Number of boundary faces = 0

Processor 54
    Number of cells = 6
    Number of faces shared with processor 38 = 3
    Number of faces shared with processor 40 = 1
    Number of faces shared with processor 43 = 1
    Number of faces shared with processor 46 = 1
    Number of faces shared with processor 47 = 1
    Number of faces shared with processor 49 = 2
    Number of faces shared with processor 51 = 2
    Number of faces shared with processor 52 = 2
    Number of faces shared with processor 53 = 2
    Number of faces shared with processor 55 = 4
    Number of faces shared with processor 367 = 1
    Number of faces shared with processor 374 = 1
    Number of faces shared with processor 375 = 1
    Number of processor patches = 13
    Number of processor faces = 22
    Number of boundary faces = 0

Processor 55
    Number of cells = 6
    Number of faces shared with processor 933 = 1
    Number of faces shared with processor 934 = 1
    Number of faces shared with processor 38 = 3
    Number of faces shared with processor 39 = 2
    Number of faces shared with processor 1064 = 2
    Number of faces shared with processor 44 = 2
    Number of faces shared with processor 53 = 4
    Number of faces shared with processor 1078 = 1
    Number of faces shared with processor 54 = 4
    Number of faces shared with processor 367 = 3
    Number of faces shared with processor 368 = 1
    Number of processor patches = 11
    Number of processor faces = 24
    Number of boundary faces = 0

Processor 56
    Number of cells = 5
    Number of faces shared with processor 534 = 1
    Number of faces shared with processor 57 = 3
    Number of faces shared with processor 58 = 3
    Number of faces shared with processor 59 = 2
    Number of faces shared with processor 61 = 1
    Number of faces shared with processor 62 = 1
    Number of faces shared with processor 64 = 1
    Number of faces shared with processor 103 = 2
    Number of faces shared with processor 107 = 1
    Number of processor patches = 9
    Number of processor faces = 15
    Number of boundary faces = 5

Processor 57
    Number of cells = 5
    Number of faces shared with processor 56 = 3
    Number of faces shared with processor 58 = 4
    Number of faces shared with processor 64 = 3
    Number of faces shared with processor 65 = 2
    Number of faces shared with processor 66 = 1
    Number of faces shared with processor 69 = 2
    Number of faces shared with processor 80 = 1
    Number of faces shared with processor 81 = 1
    Number of faces shared with processor 104 = 2
    Number of processor patches = 9
    Number of processor faces = 19
    Number of boundary faces = 1

Processor 58
    Number of cells = 6
    Number of faces shared with processor 534 = 1
    Number of faces shared with processor 554 = 1
    Number of faces shared with processor 56 = 3
    Number of faces shared with processor 57 = 4
    Number of faces shared with processor 59 = 4
    Number of faces shared with processor 61 = 2
    Number of faces shared with processor 80 = 2
    Number of faces shared with processor 81 = 1
    Number of faces shared with processor 101 = 1
    Number of faces shared with processor 102 = 1
    Number of faces shared with processor 103 = 1
    Number of faces shared with processor 104 = 1
    Number of processor patches = 12
    Number of processor faces = 22
    Number of boundary faces = 0

Processor 59
    Number of cells = 5
    Number of faces shared with processor 534 = 2
    Number of faces shared with processor 554 = 1
    Number of faces shared with processor 555 = 1
    Number of faces shared with processor 558 = 2
    Number of faces shared with processor 56 = 2
    Number of faces shared with processor 58 = 4
    Number of faces shared with processor 60 = 3
    Number of faces shared with processor 62 = 2
    Number of faces shared with processor 83 = 2
    Number of processor patches = 9
    Number of processor faces = 19
    Number of boundary faces = 1

Processor 60
    Number of cells = 6
    Number of faces shared with processor 546 = 1
    Number of faces shared with processor 549 = 3
    Number of faces shared with processor 550 = 2
    Number of faces shared with processor 59 = 3
    Number of faces shared with processor 62 = 6
    Number of faces shared with processor 82 = 2
    Number of processor patches = 6
    Number of processor faces = 17
    Number of boundary faces = 5

Processor 61
    Number of cells = 6
    Number of faces shared with processor 56 = 1
    Number of faces shared with processor 58 = 2
    Number of faces shared with processor 62 = 6
    Number of faces shared with processor 66 = 3
    Number of faces shared with processor 69 = 4
    Number of faces shared with processor 81 = 1
    Number of processor patches = 6
    Number of processor faces = 17
    Number of boundary faces = 5

Processor 62
    Number of cells = 6
    Number of faces shared with processor 56 = 1
    Number of faces shared with processor 59 = 2
    Number of faces shared with processor 60 = 6
    Number of faces shared with processor 61 = 6
    Number of faces shared with processor 82 = 1
    Number of faces shared with processor 83 = 1
    Number of processor patches = 6
    Number of processor faces = 17
    Number of boundary faces = 5

Processor 63
    Number of cells = 5
    Number of faces shared with processor 18 = 2
    Number of faces shared with processor 65 = 4
    Number of faces shared with processor 66 = 1
    Number of faces shared with processor 67 = 3
    Number of faces shared with processor 72 = 1
    Number of faces shared with processor 73 = 2
    Number of faces shared with processor 76 = 2
    Number of faces shared with processor 80 = 1
    Number of faces shared with processor 81 = 2
    Number of faces shared with processor 105 = 2
    Number of processor patches = 10
    Number of processor faces = 20
    Number of boundary faces = 0

Processor 64
    Number of cells = 6
    Number of faces shared with processor 23 = 2
    Number of faces shared with processor 56 = 1
    Number of faces shared with processor 57 = 3
    Number of faces shared with processor 65 = 6
    Number of faces shared with processor 68 = 3
    Number of faces shared with processor 106 = 1
    Number of faces shared with processor 107 = 2
    Number of processor patches = 7
    Number of processor faces = 18
    Number of boundary faces = 4

Processor 65
    Number of cells = 6
    Number of faces shared with processor 18 = 2
    Number of faces shared with processor 22 = 1
    Number of faces shared with processor 23 = 1
    Number of faces shared with processor 57 = 2
    Number of faces shared with processor 63 = 4
    Number of faces shared with processor 64 = 6
    Number of faces shared with processor 66 = 1
    Number of faces shared with processor 67 = 1
    Number of faces shared with processor 68 = 1
    Number of faces shared with processor 105 = 1
    Number of faces shared with processor 106 = 2
    Number of processor patches = 11
    Number of processor faces = 22
    Number of boundary faces = 0

Processor 66
    Number of cells = 5
    Number of faces shared with processor 57 = 1
    Number of faces shared with processor 61 = 3
    Number of faces shared with processor 63 = 1
    Number of faces shared with processor 65 = 1
    Number of faces shared with processor 67 = 4
    Number of faces shared with processor 68 = 1
    Number of faces shared with processor 69 = 2
    Number of faces shared with processor 72 = 1
    Number of faces shared with processor 77 = 1
    Number of faces shared with processor 81 = 3
    Number of faces shared with processor 82 = 1
    Number of processor patches = 11
    Number of processor faces = 19
    Number of boundary faces = 3

Processor 67
    Number of cells = 6
    Number of faces shared with processor 20 = 4
    Number of faces shared with processor 63 = 3
    Number of faces shared with processor 65 = 1
    Number of faces shared with processor 66 = 4
    Number of faces shared with processor 68 = 2
    Number of faces shared with processor 69 = 1
    Number of faces shared with processor 71 = 2
    Number of faces shared with processor 72 = 1
    Number of processor patches = 8
    Number of processor faces = 18
    Number of boundary faces = 4

Processor 68
    Number of cells = 6
    Number of faces shared with processor 21 = 2
    Number of faces shared with processor 22 = 2
    Number of faces shared with processor 64 = 3
    Number of faces shared with processor 65 = 1
    Number of faces shared with processor 66 = 1
    Number of faces shared with processor 67 = 2
    Number of faces shared with processor 69 = 6
    Number of processor patches = 7
    Number of processor faces = 17
    Number of boundary faces = 5

Processor 69
    Number of cells = 6
    Number of faces shared with processor 57 = 2
    Number of faces shared with processor 61 = 4
    Number of faces shared with processor 66 = 2
    Number of faces shared with processor 67 = 1
    Number of faces shared with processor 68 = 6
    Number of processor patches = 5
    Number of processor faces = 15
    Number of boundary faces = 7

Processor 70
    Number of cells = 5
    Number of faces shared with processor 442 = 2
    Number of faces shared with processor 443 = 2
    Number of faces shared with processor 71 = 3
    Number of faces shared with processor 72 = 4
    Number of faces shared with processor 74 = 1
    Number of faces shared with processor 75 = 2
    Number of faces shared with processor 77 = 2
    Number of faces shared with processor 78 = 1
    Number of processor patches = 8
    Number of processor faces = 17
    Number of boundary faces = 3

Processor 71
    Number of cells = 6
    Number of faces shared with processor 28 = 2
    Number of faces shared with processor 29 = 3
    Number of faces shared with processor 67 = 2
    Number of faces shared with processor 70 = 3
    Number of faces shared with processor 72 = 5
    Number of faces shared with processor 73 = 2
    Number of faces shared with processor 74 = 3
    Number of processor patches = 7
    Number of processor faces = 20
    Number of boundary faces = 4

Processor 72
    Number of cells = 6
    Number of faces shared with processor 63 = 1
    Number of faces shared with processor 66 = 1
    Number of faces shared with processor 67 = 1
    Number of faces shared with processor 70 = 4
    Number of faces shared with processor 71 = 5
    Number of faces shared with processor 75 = 1
    Number of faces shared with processor 76 = 3
    Number of faces shared with processor 77 = 1
    Number of faces shared with processor 78 = 1
    Number of faces shared with processor 81 = 2
    Number of processor patches = 10
    Number of processor faces = 20
    Number of boundary faces = 2

Processor 73
    Number of cells = 5
    Number of faces shared with processor 35 = 1
    Number of faces shared with processor 41 = 3
    Number of faces shared with processor 45 = 1
    Number of faces shared with processor 63 = 2
    Number of faces shared with processor 71 = 2
    Number of faces shared with processor 74 = 3
    Number of faces shared with processor 75 = 1
    Number of faces shared with processor 76 = 4
    Number of faces shared with processor 88 = 1
    Number of faces shared with processor 91 = 2
    Number of processor patches = 10
    Number of processor faces = 20
    Number of boundary faces = 0

Processor 74
    Number of cells = 6
    Number of faces shared with processor 386 = 2
    Number of faces shared with processor 390 = 2
    Number of faces shared with processor 29 = 3
    Number of faces shared with processor 41 = 3
    Number of faces shared with processor 443 = 3
    Number of faces shared with processor 446 = 1
    Number of faces shared with processor 70 = 1
    Number of faces shared with processor 71 = 3
    Number of faces shared with processor 73 = 3
    Number of faces shared with processor 75 = 1
    Number of faces shared with processor 88 = 1
    Number of processor patches = 11
    Number of processor faces = 23
    Number of boundary faces = 1

Processor 75
    Number of cells = 6
    Number of faces shared with processor 443 = 1
    Number of faces shared with processor 446 = 3
    Number of faces shared with processor 70 = 2
    Number of faces shared with processor 72 = 1
    Number of faces shared with processor 73 = 1
    Number of faces shared with processor 74 = 1
    Number of faces shared with processor 76 = 6
    Number of faces shared with processor 79 = 4
    Number of faces shared with processor 87 = 1
    Number of faces shared with processor 88 = 1
    Number of faces shared with processor 96 = 1
    Number of processor patches = 11
    Number of processor faces = 22
    Number of boundary faces = 0

Processor 76
    Number of cells = 6
    Number of faces shared with processor 63 = 2
    Number of faces shared with processor 72 = 3
    Number of faces shared with processor 73 = 4
    Number of faces shared with processor 75 = 6
    Number of faces shared with processor 80 = 2
    Number of faces shared with processor 81 = 2
    Number of faces shared with processor 91 = 2
    Number of faces shared with processor 96 = 1
    Number of processor patches = 8
    Number of processor faces = 22
    Number of boundary faces = 0

Processor 77
    Number of cells = 5
    Number of faces shared with processor 520 = 2
    Number of faces shared with processor 447 = 2
    Number of faces shared with processor 66 = 1
    Number of faces shared with processor 70 = 2
    Number of faces shared with processor 72 = 1
    Number of faces shared with processor 78 = 4
    Number of faces shared with processor 81 = 1
    Number of faces shared with processor 82 = 2
    Number of processor patches = 8
    Number of processor faces = 15
    Number of boundary faces = 5

Processor 78
    Number of cells = 6
    Number of faces shared with processor 520 = 1
    Number of faces shared with processor 522 = 1
    Number of faces shared with processor 523 = 2
    Number of faces shared with processor 447 = 3
    Number of faces shared with processor 70 = 1
    Number of faces shared with processor 72 = 1
    Number of faces shared with processor 77 = 4
    Number of faces shared with processor 79 = 6
    Number of faces shared with processor 81 = 1
    Number of faces shared with processor 83 = 2
    Number of processor patches = 10
    Number of processor faces = 22
    Number of boundary faces = 0

Processor 79
    Number of cells = 6
    Number of faces shared with processor 522 = 1
    Number of faces shared with processor 523 = 1
    Number of faces shared with processor 446 = 2
    Number of faces shared with processor 447 = 1
    Number of faces shared with processor 75 = 4
    Number of faces shared with processor 78 = 6
    Number of faces shared with processor 80 = 2
    Number of faces shared with processor 81 = 1
    Number of faces shared with processor 84 = 2
    Number of faces shared with processor 97 = 2
    Number of processor patches = 10
    Number of processor faces = 22
    Number of boundary faces = 0

Processor 80
    Number of cells = 5
    Number of faces shared with processor 524 = 1
    Number of faces shared with processor 554 = 1
    Number of faces shared with processor 57 = 1
    Number of faces shared with processor 58 = 2
    Number of faces shared with processor 63 = 1
    Number of faces shared with processor 76 = 2
    Number of faces shared with processor 79 = 2
    Number of faces shared with processor 81 = 3
    Number of faces shared with processor 83 = 2
    Number of faces shared with processor 97 = 2
    Number of faces shared with processor 101 = 1
    Number of faces shared with processor 102 = 2
    Number of processor patches = 12
    Number of processor faces = 20
    Number of boundary faces = 0

Processor 81
    Number of cells = 6
    Number of faces shared with processor 57 = 1
    Number of faces shared with processor 58 = 1
    Number of faces shared with processor 61 = 1
    Number of faces shared with processor 63 = 2
    Number of faces shared with processor 66 = 3
    Number of faces shared with processor 72 = 2
    Number of faces shared with processor 76 = 2
    Number of faces shared with processor 77 = 1
    Number of faces shared with processor 78 = 1
    Number of faces shared with processor 79 = 1
    Number of faces shared with processor 80 = 3
    Number of faces shared with processor 83 = 4
    Number of processor patches = 12
    Number of processor faces = 22
    Number of boundary faces = 0

Processor 82
    Number of cells = 6
    Number of faces shared with processor 520 = 1
    Number of faces shared with processor 523 = 1
    Number of faces shared with processor 546 = 4
    Number of faces shared with processor 60 = 2
    Number of faces shared with processor 62 = 1
    Number of faces shared with processor 66 = 1
    Number of faces shared with processor 77 = 2
    Number of faces shared with processor 83 = 6
    Number of processor patches = 8
    Number of processor faces = 18
    Number of boundary faces = 4

Processor 83
    Number of cells = 6
    Number of faces shared with processor 523 = 1
    Number of faces shared with processor 524 = 1
    Number of faces shared with processor 554 = 1
    Number of faces shared with processor 555 = 2
    Number of faces shared with processor 59 = 2
    Number of faces shared with processor 62 = 1
    Number of faces shared with processor 78 = 2
    Number of faces shared with processor 80 = 2
    Number of faces shared with processor 81 = 4
    Number of faces shared with processor 82 = 6
    Number of processor patches = 10
    Number of processor faces = 22
    Number of boundary faces = 0

Processor 84
    Number of cells = 5
    Number of faces shared with processor 430 = 1
    Number of faces shared with processor 431 = 1
    Number of faces shared with processor 432 = 1
    Number of faces shared with processor 446 = 3
    Number of faces shared with processor 79 = 2
    Number of faces shared with processor 86 = 4
    Number of faces shared with processor 87 = 3
    Number of faces shared with processor 88 = 1
    Number of faces shared with processor 97 = 2
    Number of faces shared with processor 509 = 2
    Number of processor patches = 10
    Number of processor faces = 20
    Number of boundary faces = 0

Processor 85
    Number of cells = 6
    Number of faces shared with processor 155 = 4
    Number of faces shared with processor 427 = 1
    Number of faces shared with processor 429 = 2
    Number of faces shared with processor 86 = 6
    Number of faces shared with processor 89 = 2
    Number of faces shared with processor 90 = 2
    Number of faces shared with processor 94 = 1
    Number of faces shared with processor 95 = 2
    Number of faces shared with processor 507 = 1
    Number of faces shared with processor 508 = 1
    Number of processor patches = 10
    Number of processor faces = 22
    Number of boundary faces = 0

Processor 86
    Number of cells = 6
    Number of faces shared with processor 427 = 1
    Number of faces shared with processor 431 = 2
    Number of faces shared with processor 84 = 4
    Number of faces shared with processor 85 = 6
    Number of faces shared with processor 87 = 2
    Number of faces shared with processor 95 = 1
    Number of faces shared with processor 96 = 1
    Number of faces shared with processor 97 = 1
    Number of faces shared with processor 507 = 1
    Number of faces shared with processor 508 = 1
    Number of faces shared with processor 509 = 2
    Number of processor patches = 11
    Number of processor faces = 22
    Number of boundary faces = 0

Processor 87
    Number of cells = 5
    Number of faces shared with processor 432 = 2
    Number of faces shared with processor 75 = 1
    Number of faces shared with processor 84 = 3
    Number of faces shared with processor 86 = 2
    Number of faces shared with processor 88 = 5
    Number of faces shared with processor 90 = 4
    Number of faces shared with processor 93 = 1
    Number of faces shared with processor 96 = 2
    Number of processor patches = 8
    Number of processor faces = 20
    Number of boundary faces = 0

Processor 88
    Number of cells = 6
    Number of faces shared with processor 390 = 1
    Number of faces shared with processor 432 = 1
    Number of faces shared with processor 49 = 2
    Number of faces shared with processor 51 = 2
    Number of faces shared with processor 446 = 1
    Number of faces shared with processor 73 = 1
    Number of faces shared with processor 74 = 1
    Number of faces shared with processor 75 = 1
    Number of faces shared with processor 84 = 1
    Number of faces shared with processor 87 = 5
    Number of faces shared with processor 90 = 2
    Number of faces shared with processor 91 = 2
    Number of faces shared with processor 93 = 1
    Number of faces shared with processor 377 = 1
    Number of processor patches = 14
    Number of processor faces = 22
    Number of boundary faces = 0

Processor 89
    Number of cells = 6
    Number of faces shared with processor 156 = 2
    Number of faces shared with processor 162 = 3
    Number of faces shared with processor 163 = 1
    Number of faces shared with processor 428 = 1
    Number of faces shared with processor 429 = 1
    Number of faces shared with processor 50 = 2
    Number of faces shared with processor 85 = 2
    Number of faces shared with processor 90 = 6
    Number of faces shared with processor 92 = 2
    Number of faces shared with processor 94 = 1
    Number of faces shared with processor 371 = 1
    Number of processor patches = 11
    Number of processor faces = 22
    Number of boundary faces = 0

Processor 90
    Number of cells = 6
    Number of faces shared with processor 428 = 2
    Number of faces shared with processor 50 = 1
    Number of faces shared with processor 51 = 1
    Number of faces shared with processor 85 = 2
    Number of faces shared with processor 87 = 4
    Number of faces shared with processor 88 = 2
    Number of faces shared with processor 89 = 6
    Number of faces shared with processor 92 = 1
    Number of faces shared with processor 93 = 1
    Number of faces shared with processor 94 = 1
    Number of faces shared with processor 377 = 1
    Number of processor patches = 11
    Number of processor faces = 22
    Number of boundary faces = 0

Processor 91
    Number of cells = 5
    Number of faces shared with processor 45 = 2
    Number of faces shared with processor 73 = 2
    Number of faces shared with processor 76 = 2
    Number of faces shared with processor 88 = 2
    Number of faces shared with processor 93 = 5
    Number of faces shared with processor 96 = 2
    Number of faces shared with processor 102 = 1
    Number of faces shared with processor 105 = 4
    Number of faces shared with processor 106 = 1
    Number of faces shared with processor 111 = 1
    Number of processor patches = 10
    Number of processor faces = 22
    Number of boundary faces = 0

Processor 92
    Number of cells = 6
    Number of faces shared with processor 161 = 2
    Number of faces shared with processor 163 = 2
    Number of faces shared with processor 48 = 3
    Number of faces shared with processor 50 = 1
    Number of faces shared with processor 89 = 2
    Number of faces shared with processor 90 = 1
    Number of faces shared with processor 93 = 6
    Number of faces shared with processor 94 = 2
    Number of faces shared with processor 110 = 1
    Number of faces shared with processor 111 = 2
    Number of processor patches = 10
    Number of processor faces = 22
    Number of boundary faces = 0

Processor 93
    Number of cells = 6
    Number of faces shared with processor 45 = 2
    Number of faces shared with processor 87 = 1
    Number of faces shared with processor 88 = 1
    Number of faces shared with processor 90 = 1
    Number of faces shared with processor 91 = 5
    Number of faces shared with processor 92 = 6
    Number of faces shared with processor 94 = 2
    Number of faces shared with processor 96 = 2
    Number of faces shared with processor 105 = 1
    Number of faces shared with processor 111 = 1
    Number of processor patches = 10
    Number of processor faces = 22
    Number of boundary faces = 0

Processor 94
    Number of cells = 5
    Number of faces shared with processor 160 = 2
    Number of faces shared with processor 85 = 1
    Number of faces shared with processor 89 = 1
    Number of faces shared with processor 90 = 1
    Number of faces shared with processor 92 = 2
    Number of faces shared with processor 93 = 2
    Number of faces shared with processor 95 = 4
    Number of faces shared with processor 96 = 3
    Number of faces shared with processor 99 = 2
    Number of faces shared with processor 110 = 2
    Number of processor patches = 10
    Number of processor faces = 20
    Number of boundary faces = 0

Processor 95
    Number of cells = 6
    Number of faces shared with processor 513 = 1
    Number of faces shared with processor 159 = 2
    Number of faces shared with processor 160 = 2
    Number of faces shared with processor 85 = 2
    Number of faces shared with processor 86 = 1
    Number of faces shared with processor 94 = 4
    Number of faces shared with processor 97 = 2
    Number of faces shared with processor 99 = 4
    Number of faces shared with processor 101 = 1
    Number of faces shared with processor 511 = 3
    Number of processor patches = 10
    Number of processor faces = 22
    Number of boundary faces = 0

Processor 96
    Number of cells = 6
    Number of faces shared with processor 75 = 1
    Number of faces shared with processor 76 = 1
    Number of faces shared with processor 86 = 1
    Number of faces shared with processor 87 = 2
    Number of faces shared with processor 91 = 2
    Number of faces shared with processor 93 = 2
    Number of faces shared with processor 94 = 3
    Number of faces shared with processor 97 = 6
    Number of faces shared with processor 99 = 1
    Number of faces shared with processor 102 = 3
    Number of processor patches = 10
    Number of processor faces = 22
    Number of boundary faces = 0

Processor 97
    Number of cells = 6
    Number of faces shared with processor 524 = 2
    Number of faces shared with processor 79 = 2
    Number of faces shared with processor 80 = 2
    Number of faces shared with processor 84 = 2
    Number of faces shared with processor 86 = 1
    Number of faces shared with processor 95 = 2
    Number of faces shared with processor 96 = 6
    Number of faces shared with processor 101 = 2
    Number of faces shared with processor 102 = 1
    Number of faces shared with processor 511 = 2
    Number of processor patches = 10
    Number of processor faces = 22
    Number of boundary faces = 0

Processor 98
    Number of cells = 5
    Number of faces shared with processor 535 = 2
    Number of faces shared with processor 536 = 2
    Number of faces shared with processor 724 = 1
    Number of faces shared with processor 100 = 4
    Number of faces shared with processor 103 = 2
    Number of faces shared with processor 109 = 2
    Number of faces shared with processor 116 = 2
    Number of processor patches = 7
    Number of processor faces = 15
    Number of boundary faces = 5

Processor 99
    Number of cells = 6
    Number of faces shared with processor 537 = 2
    Number of faces shared with processor 94 = 2
    Number of faces shared with processor 95 = 4
    Number of faces shared with processor 96 = 1
    Number of faces shared with processor 100 = 5
    Number of faces shared with processor 101 = 2
    Number of faces shared with processor 102 = 1
    Number of faces shared with processor 110 = 3
    Number of faces shared with processor 123 = 4
    Number of processor patches = 9
    Number of processor faces = 24
    Number of boundary faces = 0

Processor 100
    Number of cells = 6
    Number of faces shared with processor 535 = 2
    Number of faces shared with processor 537 = 1
    Number of faces shared with processor 98 = 4
    Number of faces shared with processor 99 = 5
    Number of faces shared with processor 101 = 2
    Number of faces shared with processor 102 = 1
    Number of faces shared with processor 103 = 1
    Number of faces shared with processor 104 = 1
    Number of faces shared with processor 109 = 2
    Number of faces shared with processor 110 = 1
    Number of faces shared with processor 115 = 2
    Number of processor patches = 11
    Number of processor faces = 22
    Number of boundary faces = 0

Processor 101
    Number of cells = 5
    Number of faces shared with processor 532 = 2
    Number of faces shared with processor 537 = 1
    Number of faces shared with processor 538 = 2
    Number of faces shared with processor 58 = 1
    Number of faces shared with processor 80 = 1
    Number of faces shared with processor 95 = 1
    Number of faces shared with processor 97 = 2
    Number of faces shared with processor 99 = 2
    Number of faces shared with processor 100 = 2
    Number of faces shared with processor 102 = 4
    Number of faces shared with processor 103 = 2
    Number of processor patches = 11
    Number of processor faces = 20
    Number of boundary faces = 0

Processor 102
    Number of cells = 6
    Number of faces shared with processor 58 = 1
    Number of faces shared with processor 80 = 2
    Number of faces shared with processor 91 = 1
    Number of faces shared with processor 96 = 3
    Number of faces shared with processor 97 = 1
    Number of faces shared with processor 99 = 1
    Number of faces shared with processor 100 = 1
    Number of faces shared with processor 101 = 4
    Number of faces shared with processor 104 = 6
    Number of faces shared with processor 105 = 1
    Number of faces shared with processor 110 = 1
    Number of processor patches = 11
    Number of processor faces = 22
    Number of boundary faces = 0

Processor 103
    Number of cells = 6
    Number of faces shared with processor 534 = 2
    Number of faces shared with processor 536 = 2
    Number of faces shared with processor 56 = 2
    Number of faces shared with processor 58 = 1
    Number of faces shared with processor 98 = 2
    Number of faces shared with processor 100 = 1
    Number of faces shared with processor 101 = 2
    Number of faces shared with processor 104 = 4
    Number of faces shared with processor 107 = 2
    Number of processor patches = 9
    Number of processor faces = 18
    Number of boundary faces = 4

Processor 104
    Number of cells = 6
    Number of faces shared with processor 57 = 2
    Number of faces shared with processor 58 = 1
    Number of faces shared with processor 100 = 1
    Number of faces shared with processor 102 = 6
    Number of faces shared with processor 103 = 4
    Number of faces shared with processor 106 = 4
    Number of faces shared with processor 107 = 2
    Number of faces shared with processor 109 = 1
    Number of faces shared with processor 110 = 1
    Number of processor patches = 9
    Number of processor faces = 22
    Number of boundary faces = 0

Processor 105
    Number of cells = 5
    Number of faces shared with processor 8 = 3
    Number of faces shared with processor 9 = 1
    Number of faces shared with processor 63 = 2
    Number of faces shared with processor 65 = 1
    Number of faces shared with processor 91 = 4
    Number of faces shared with processor 93 = 1
    Number of faces shared with processor 102 = 1
    Number of faces shared with processor 106 = 5
    Number of faces shared with processor 111 = 2
    Number of processor patches = 9
    Number of processor faces = 20
    Number of boundary faces = 0

Processor 106
    Number of cells = 6
    Number of faces shared with processor 7 = 1
    Number of faces shared with processor 9 = 1
    Number of faces shared with processor 64 = 1
    Number of faces shared with processor 65 = 2
    Number of faces shared with processor 91 = 1
    Number of faces shared with processor 104 = 4
    Number of faces shared with processor 105 = 5
    Number of faces shared with processor 107 = 4
    Number of faces shared with processor 108 = 1
    Number of faces shared with processor 109 = 1
    Number of faces shared with processor 111 = 1
    Number of processor patches = 11
    Number of processor faces = 22
    Number of boundary faces = 0

Processor 107
    Number of cells = 6
    Number of faces shared with processor 7 = 1
    Number of faces shared with processor 23 = 1
    Number of faces shared with processor 56 = 1
    Number of faces shared with processor 64 = 2
    Number of faces shared with processor 103 = 2
    Number of faces shared with processor 104 = 2
    Number of faces shared with processor 106 = 4
    Number of faces shared with processor 108 = 1
    Number of faces shared with processor 109 = 2
    Number of processor patches = 9
    Number of processor faces = 16
    Number of boundary faces = 6

Processor 108
    Number of cells = 6
    Number of faces shared with processor 0 = 2
    Number of faces shared with processor 2 = 2
    Number of faces shared with processor 106 = 1
    Number of faces shared with processor 107 = 1
    Number of faces shared with processor 109 = 6
    Number of faces shared with processor 110 = 1
    Number of faces shared with processor 111 = 2
    Number of faces shared with processor 112 = 4
    Number of processor patches = 8
    Number of processor faces = 19
    Number of boundary faces = 3

Processor 109
    Number of cells = 6
    Number of faces shared with processor 98 = 2
    Number of faces shared with processor 100 = 2
    Number of faces shared with processor 104 = 1
    Number of faces shared with processor 106 = 1
    Number of faces shared with processor 107 = 2
    Number of faces shared with processor 108 = 6
    Number of faces shared with processor 110 = 2
    Number of faces shared with processor 111 = 1
    Number of faces shared with processor 112 = 1
    Number of faces shared with processor 116 = 1
    Number of processor patches = 10
    Number of processor faces = 19
    Number of boundary faces = 3

Processor 110
    Number of cells = 6
    Number of faces shared with processor 92 = 1
    Number of faces shared with processor 94 = 2
    Number of faces shared with processor 99 = 3
    Number of faces shared with processor 100 = 1
    Number of faces shared with processor 102 = 1
    Number of faces shared with processor 104 = 1
    Number of faces shared with processor 108 = 1
    Number of faces shared with processor 109 = 2
    Number of faces shared with processor 111 = 6
    Number of faces shared with processor 119 = 1
    Number of faces shared with processor 122 = 3
    Number of processor patches = 11
    Number of processor faces = 22
    Number of boundary faces = 0

Processor 111
    Number of cells = 6
    Number of faces shared with processor 1 = 2
    Number of faces shared with processor 2 = 2
    Number of faces shared with processor 91 = 1
    Number of faces shared with processor 92 = 2
    Number of faces shared with processor 93 = 1
    Number of faces shared with processor 105 = 2
    Number of faces shared with processor 106 = 1
    Number of faces shared with processor 108 = 2
    Number of faces shared with processor 109 = 1
    Number of faces shared with processor 110 = 6
    Number of faces shared with processor 119 = 2
    Number of processor patches = 11
    Number of processor faces = 22
    Number of boundary faces = 0

Processor 112
    Number of cells = 5
    Number of faces shared with processor 180 = 2
    Number of faces shared with processor 108 = 4
    Number of faces shared with processor 109 = 1
    Number of faces shared with processor 113 = 4
    Number of faces shared with processor 115 = 2
    Number of faces shared with processor 116 = 2
    Number of faces shared with processor 119 = 1
    Number of faces shared with processor 122 = 2
    Number of processor patches = 8
    Number of processor faces = 18
    Number of boundary faces = 2

Processor 113
    Number of cells = 6
    Number of faces shared with processor 180 = 2
    Number of faces shared with processor 112 = 4
    Number of faces shared with processor 114 = 6
    Number of faces shared with processor 115 = 1
    Number of faces shared with processor 116 = 1
    Number of faces shared with processor 117 = 2
    Number of faces shared with processor 121 = 3
    Number of processor patches = 7
    Number of processor faces = 19
    Number of boundary faces = 3

Processor 114
    Number of cells = 6
    Number of faces shared with processor 134 = 4
    Number of faces shared with processor 179 = 3
    Number of faces shared with processor 187 = 1
    Number of faces shared with processor 113 = 6
    Number of faces shared with processor 117 = 2
    Number of faces shared with processor 120 = 2
    Number of faces shared with processor 121 = 1
    Number of processor patches = 7
    Number of processor faces = 19
    Number of boundary faces = 3

Processor 115
    Number of cells = 5
    Number of faces shared with processor 724 = 2
    Number of faces shared with processor 100 = 2
    Number of faces shared with processor 112 = 2
    Number of faces shared with processor 113 = 1
    Number of faces shared with processor 116 = 5
    Number of faces shared with processor 117 = 1
    Number of faces shared with processor 118 = 2
    Number of faces shared with processor 122 = 1
    Number of faces shared with processor 123 = 3
    Number of faces shared with processor 124 = 1
    Number of processor patches = 10
    Number of processor faces = 20
    Number of boundary faces = 0

Processor 116
    Number of cells = 6
    Number of faces shared with processor 724 = 2
    Number of faces shared with processor 98 = 2
    Number of faces shared with processor 109 = 1
    Number of faces shared with processor 112 = 2
    Number of faces shared with processor 113 = 1
    Number of faces shared with processor 115 = 5
    Number of faces shared with processor 117 = 2
    Number of faces shared with processor 118 = 1
    Number of processor patches = 8
    Number of processor faces = 16
    Number of boundary faces = 6

Processor 117
    Number of cells = 6
    Number of faces shared with processor 134 = 2
    Number of faces shared with processor 113 = 2
    Number of faces shared with processor 114 = 2
    Number of faces shared with processor 115 = 1
    Number of faces shared with processor 116 = 2
    Number of faces shared with processor 118 = 5
    Number of faces shared with processor 125 = 2
    Number of faces shared with processor 126 = 2
    Number of processor patches = 8
    Number of processor faces = 18
    Number of boundary faces = 4

Processor 118
    Number of cells = 6
    Number of faces shared with processor 129 = 3
    Number of faces shared with processor 720 = 1
    Number of faces shared with processor 726 = 2
    Number of faces shared with processor 727 = 1
    Number of faces shared with processor 115 = 2
    Number of faces shared with processor 116 = 1
    Number of faces shared with processor 117 = 5
    Number of faces shared with processor 124 = 4
    Number of faces shared with processor 126 = 4
    Number of processor patches = 9
    Number of processor faces = 23
    Number of boundary faces = 1

Processor 119
    Number of cells = 5
    Number of faces shared with processor 161 = 4
    Number of faces shared with processor 169 = 3
    Number of faces shared with processor 110 = 1
    Number of faces shared with processor 111 = 2
    Number of faces shared with processor 112 = 1
    Number of faces shared with processor 121 = 5
    Number of faces shared with processor 122 = 4
    Number of processor patches = 7
    Number of processor faces = 20
    Number of boundary faces = 0

Processor 120
    Number of cells = 6
    Number of faces shared with processor 130 = 1
    Number of faces shared with processor 133 = 6
    Number of faces shared with processor 134 = 2
    Number of faces shared with processor 166 = 2
    Number of faces shared with processor 168 = 1
    Number of faces shared with processor 175 = 1
    Number of faces shared with processor 189 = 1
    Number of faces shared with processor 114 = 2
    Number of faces shared with processor 121 = 4
    Number of faces shared with processor 125 = 2
    Number of processor patches = 10
    Number of processor faces = 22
    Number of boundary faces = 0

Processor 121
    Number of cells = 6
    Number of faces shared with processor 167 = 2
    Number of faces shared with processor 168 = 1
    Number of faces shared with processor 169 = 2
    Number of faces shared with processor 113 = 3
    Number of faces shared with processor 114 = 1
    Number of faces shared with processor 119 = 5
    Number of faces shared with processor 120 = 4
    Number of faces shared with processor 122 = 2
    Number of faces shared with processor 125 = 2
    Number of processor patches = 9
    Number of processor faces = 22
    Number of boundary faces = 0

Processor 122
    Number of cells = 5
    Number of faces shared with processor 160 = 2
    Number of faces shared with processor 110 = 3
    Number of faces shared with processor 112 = 2
    Number of faces shared with processor 115 = 1
    Number of faces shared with processor 119 = 4
    Number of faces shared with processor 121 = 2
    Number of faces shared with processor 123 = 4
    Number of faces shared with processor 125 = 2
    Number of processor patches = 8
    Number of processor faces = 20
    Number of boundary faces = 0

Processor 123
    Number of cells = 6
    Number of faces shared with processor 159 = 2
    Number of faces shared with processor 160 = 1
    Number of faces shared with processor 717 = 2
    Number of faces shared with processor 99 = 4
    Number of faces shared with processor 115 = 3
    Number of faces shared with processor 122 = 4
    Number of faces shared with processor 124 = 5
    Number of faces shared with processor 125 = 1
    Number of processor patches = 8
    Number of processor faces = 22
    Number of boundary faces = 0

Processor 124
    Number of cells = 6
    Number of faces shared with processor 129 = 2
    Number of faces shared with processor 157 = 2
    Number of faces shared with processor 159 = 1
    Number of faces shared with processor 717 = 2
    Number of faces shared with processor 720 = 3
    Number of faces shared with processor 115 = 1
    Number of faces shared with processor 118 = 4
    Number of faces shared with processor 123 = 5
    Number of faces shared with processor 125 = 4
    Number of processor patches = 9
    Number of processor faces = 24
    Number of boundary faces = 0

Processor 125
    Number of cells = 6
    Number of faces shared with processor 129 = 3
    Number of faces shared with processor 130 = 2
    Number of faces shared with processor 157 = 2
    Number of faces shared with processor 166 = 1
    Number of faces shared with processor 167 = 1
    Number of faces shared with processor 117 = 2
    Number of faces shared with processor 120 = 2
    Number of faces shared with processor 121 = 2
    Number of faces shared with processor 122 = 2
    Number of faces shared with processor 123 = 1
    Number of faces shared with processor 124 = 4
    Number of processor patches = 11
    Number of processor faces = 22
    Number of boundary faces = 0

Processor 126
    Number of cells = 5
    Number of faces shared with processor 128 = 2
    Number of faces shared with processor 129 = 2
    Number of faces shared with processor 134 = 2
    Number of faces shared with processor 676 = 2
    Number of faces shared with processor 727 = 1
    Number of faces shared with processor 117 = 2
    Number of faces shared with processor 118 = 4
    Number of faces shared with processor 127 = 2
    Number of processor patches = 8
    Number of processor faces = 17
    Number of boundary faces = 3

Processor 127
    Number of cells = 6
    Number of faces shared with processor 128 = 6
    Number of faces shared with processor 130 = 1
    Number of faces shared with processor 132 = 2
    Number of faces shared with processor 135 = 2
    Number of faces shared with processor 139 = 4
    Number of faces shared with processor 126 = 2
    Number of processor patches = 6
    Number of processor faces = 17
    Number of boundary faces = 5

Processor 128
    Number of cells = 6
    Number of faces shared with processor 131 = 3
    Number of faces shared with processor 676 = 2
    Number of faces shared with processor 678 = 4
    Number of faces shared with processor 126 = 2
    Number of faces shared with processor 127 = 6
    Number of processor patches = 5
    Number of processor faces = 17
    Number of boundary faces = 5

Processor 129
    Number of cells = 5
    Number of faces shared with processor 130 = 4
    Number of faces shared with processor 131 = 2
    Number of faces shared with processor 147 = 1
    Number of faces shared with processor 157 = 1
    Number of faces shared with processor 683 = 2
    Number of faces shared with processor 118 = 3
    Number of faces shared with processor 124 = 2
    Number of faces shared with processor 125 = 3
    Number of faces shared with processor 126 = 2
    Number of processor patches = 9
    Number of processor faces = 20
    Number of boundary faces = 0

Processor 130
    Number of cells = 6
    Number of faces shared with processor 129 = 4
    Number of faces shared with processor 131 = 2
    Number of faces shared with processor 132 = 3
[...]
Processor 1148: field transfer
Processor 1149: field transfer
Processor 1150: field transfer
Processor 1151: field transfer
Processor 1152: field transfer
Processor 1153: field transfer
Processor 1154: field transfer
Processor 1155: field transfer
Processor 1156: field transfer
Processor 1157: field transfer
Processor 1158: field transfer
Processor 1159: field transfer
Processor 1160: field transfer
Processor 1161: field transfer
Processor 1162: field transfer
Processor 1163: field transfer
Processor 1164: field transfer
Processor 1165: field transfer
Processor 1166: field transfer
Processor 1167: field transfer
Processor 1168: field transfer
Processor 1169: field transfer
Processor 1170: field transfer
Processor 1171: field transfer
Processor 1172: field transfer
Processor 1173: field transfer
Processor 1174: field transfer
Processor 1175: field transfer
Processor 1176: field transfer
Processor 1177: field transfer
Processor 1178: field transfer
Processor 1179: field transfer
Processor 1180: field transfer
Processor 1181: field transfer
Processor 1182: field transfer
Processor 1183: field transfer
Processor 1184: field transfer
Processor 1185: field transfer
Processor 1186: field transfer
Processor 1187: field transfer
Processor 1188: field transfer
Processor 1189: field transfer
Processor 1190: field transfer
Processor 1191: field transfer
Processor 1192: field transfer
Processor 1193: field transfer
Processor 1194: field transfer
Processor 1195: field transfer
Processor 1196: field transfer
Processor 1197: field transfer
Processor 1198: field transfer
Processor 1199: field transfer
Processor 1200: field transfer
Processor 1201: field transfer
Processor 1202: field transfer
Processor 1203: field transfer
Processor 1204: field transfer
Processor 1205: field transfer
Processor 1206: field transfer
Processor 1207: field transfer
Processor 1208: field transfer
Processor 1209: field transfer
Processor 1210: field transfer
Processor 1211: field transfer
Processor 1212: field transfer
Processor 1213: field transfer
Processor 1214: field transfer
Processor 1215: field transfer
Processor 1216: field transfer
Processor 1217: field transfer
Processor 1218: field transfer
Processor 1219: field transfer
Processor 1220: field transfer
Processor 1221: field transfer
Processor 1222: field transfer
Processor 1223: field transfer
Processor 1224: field transfer
Processor 1225: field transfer
Processor 1226: field transfer
Processor 1227: field transfer
Processor 1228: field transfer
Processor 1229: field transfer
Processor 1230: field transfer
Processor 1231: field transfer
Processor 1232: field transfer
Processor 1233: field transfer
Processor 1234: field transfer
Processor 1235: field transfer
Processor 1236: field transfer
Processor 1237: field transfer
Processor 1238: field transfer
Processor 1239: field transfer
Processor 1240: field transfer
Processor 1241: field transfer
Processor 1242: field transfer
Processor 1243: field transfer
Processor 1244: field transfer
Processor 1245: field transfer
Processor 1246: field transfer
Processor 1247: field transfer
Processor 1248: field transfer
Processor 1249: field transfer
Processor 1250: field transfer
Processor 1251: field transfer
Processor 1252: field transfer
Processor 1253: field transfer
Processor 1254: field transfer
Processor 1255: field transfer
Processor 1256: field transfer
Processor 1257: field transfer
Processor 1258: field transfer
Processor 1259: field transfer
Processor 1260: field transfer
Processor 1261: field transfer
Processor 1262: field transfer
Processor 1263: field transfer
Processor 1264: field transfer
Processor 1265: field transfer
Processor 1266: field transfer
Processor 1267: field transfer
Processor 1268: field transfer
Processor 1269: field transfer
Processor 1270: field transfer
Processor 1271: field transfer
Processor 1272: field transfer
Processor 1273: field transfer
Processor 1274: field transfer
Processor 1275: field transfer
Processor 1276: field transfer
Processor 1277: field transfer
Processor 1278: field transfer
Processor 1279: field transfer
Processor 1280: field transfer
Processor 1281: field transfer
Processor 1282: field transfer
Processor 1283: field transfer
Processor 1284: field transfer
Processor 1285: field transfer
Processor 1286: field transfer
Processor 1287: field transfer
Processor 1288: field transfer
Processor 1289: field transfer
Processor 1290: field transfer
Processor 1291: field transfer
Processor 1292: field transfer
Processor 1293: field transfer
Processor 1294: field transfer
Processor 1295: field transfer
Processor 1296: field transfer
Processor 1297: field transfer
Processor 1298: field transfer
Processor 1299: field transfer
Processor 1300: field transfer
Processor 1301: field transfer
Processor 1302: field transfer
Processor 1303: field transfer
Processor 1304: field transfer
Processor 1305: field transfer
Processor 1306: field transfer
Processor 1307: field transfer
Processor 1308: field transfer
Processor 1309: field transfer
Processor 1310: field transfer
Processor 1311: field transfer
Processor 1312: field transfer
Processor 1313: field transfer
Processor 1314: field transfer
Processor 1315: field transfer
Processor 1316: field transfer
Processor 1317: field transfer
Processor 1318: field transfer
Processor 1319: field transfer
Processor 1320: field transfer
Processor 1321: field transfer
Processor 1322: field transfer
Processor 1323: field transfer
Processor 1324: field transfer
Processor 1325: field transfer
Processor 1326: field transfer
Processor 1327: field transfer
Processor 1328: field transfer
Processor 1329: field transfer
Processor 1330: field transfer
Processor 1331: field transfer
Processor 1332: field transfer
Processor 1333: field transfer
Processor 1334: field transfer
Processor 1335: field transfer
Processor 1336: field transfer
Processor 1337: field transfer
Processor 1338: field transfer
Processor 1339: field transfer
Processor 1340: field transfer
Processor 1341: field transfer
Processor 1342: field transfer
Processor 1343: field transfer
Processor 1344: field transfer
Processor 1345: field transfer
Processor 1346: field transfer
Processor 1347: field transfer
Processor 1348: field transfer
Processor 1349: field transfer
Processor 1350: field transfer
Processor 1351: field transfer
Processor 1352: field transfer
Processor 1353: field transfer
Processor 1354: field transfer
Processor 1355: field transfer
Processor 1356: field transfer
Processor 1357: field transfer
Processor 1358: field transfer
Processor 1359: field transfer
Processor 1360: field transfer
Processor 1361: field transfer
Processor 1362: field transfer
Processor 1363: field transfer
Processor 1364: field transfer
Processor 1365: field transfer
Processor 1366: field transfer
Processor 1367: field transfer
Processor 1368: field transfer
Processor 1369: field transfer
Processor 1370: field transfer
Processor 1371: field transfer
Processor 1372: field transfer
Processor 1373: field transfer
Processor 1374: field transfer
Processor 1375: field transfer
Processor 1376: field transfer
Processor 1377: field transfer
Processor 1378: field transfer
Processor 1379: field transfer
Processor 1380: field transfer
Processor 1381: field transfer
Processor 1382: field transfer
Processor 1383: field transfer
Processor 1384: field transfer
Processor 1385: field transfer
Processor 1386: field transfer
Processor 1387: field transfer
Processor 1388: field transfer
Processor 1389: field transfer
Processor 1390: field transfer
Processor 1391: field transfer
Processor 1392: field transfer
Processor 1393: field transfer
Processor 1394: field transfer
Processor 1395: field transfer
Processor 1396: field transfer
Processor 1397: field transfer
Processor 1398: field transfer
Processor 1399: field transfer
Processor 1400: field transfer
Processor 1401: field transfer
Processor 1402: field transfer
Processor 1403: field transfer
Processor 1404: field transfer
Processor 1405: field transfer
Processor 1406: field transfer
Processor 1407: field transfer
Processor 1408: field transfer
Processor 1409: field transfer
Processor 1410: field transfer
Processor 1411: field transfer
Processor 1412: field transfer
Processor 1413: field transfer
Processor 1414: field transfer
Processor 1415: field transfer
Processor 1416: field transfer
Processor 1417: field transfer
Processor 1418: field transfer
Processor 1419: field transfer
Processor 1420: field transfer
Processor 1421: field transfer
Processor 1422: field transfer
Processor 1423: field transfer
Processor 1424: field transfer
Processor 1425: field transfer
Processor 1426: field transfer
Processor 1427: field transfer
Processor 1428: field transfer
Processor 1429: field transfer
Processor 1430: field transfer
Processor 1431: field transfer
Processor 1432: field transfer
Processor 1433: field transfer
Processor 1434: field transfer
Processor 1435: field transfer
Processor 1436: field transfer
Processor 1437: field transfer
Processor 1438: field transfer
Processor 1439: field transfer
Processor 1440: field transfer
Processor 1441: field transfer
Processor 1442: field transfer
Processor 1443: field transfer
Processor 1444: field transfer
Processor 1445: field transfer
Processor 1446: field transfer
Processor 1447: field transfer
Processor 1448: field transfer
Processor 1449: field transfer
Processor 1450: field transfer
Processor 1451: field transfer
Processor 1452: field transfer
Processor 1453: field transfer
Processor 1454: field transfer
Processor 1455: field transfer
Processor 1456: field transfer
Processor 1457: field transfer
Processor 1458: field transfer
Processor 1459: field transfer
Processor 1460: field transfer
Processor 1461: field transfer
Processor 1462: field transfer
Processor 1463: field transfer
Processor 1464: field transfer
Processor 1465: field transfer
Processor 1466: field transfer
Processor 1467: field transfer
Processor 1468: field transfer
Processor 1469: field transfer
Processor 1470: field transfer
Processor 1471: field transfer
Processor 1472: field transfer
Processor 1473: field transfer
Processor 1474: field transfer
Processor 1475: field transfer
Processor 1476: field transfer
Processor 1477: field transfer
Processor 1478: field transfer
Processor 1479: field transfer
Processor 1480: field transfer
Processor 1481: field transfer
Processor 1482: field transfer
Processor 1483: field transfer
Processor 1484: field transfer
Processor 1485: field transfer
Processor 1486: field transfer
Processor 1487: field transfer
Processor 1488: field transfer
Processor 1489: field transfer
Processor 1490: field transfer
Processor 1491: field transfer
Processor 1492: field transfer
Processor 1493: field transfer
Processor 1494: field transfer
Processor 1495: field transfer
Processor 1496: field transfer
Processor 1497: field transfer
Processor 1498: field transfer
Processor 1499: field transfer
Processor 1500: field transfer
Processor 1501: field transfer
Processor 1502: field transfer
Processor 1503: field transfer
Processor 1504: field transfer
Processor 1505: field transfer
Processor 1506: field transfer
Processor 1507: field transfer
Processor 1508: field transfer
Processor 1509: field transfer
Processor 1510: field transfer
Processor 1511: field transfer
Processor 1512: field transfer
Processor 1513: field transfer
Processor 1514: field transfer
Processor 1515: field transfer
Processor 1516: field transfer
Processor 1517: field transfer
Processor 1518: field transfer
Processor 1519: field transfer
Processor 1520: field transfer
Processor 1521: field transfer
Processor 1522: field transfer
Processor 1523: field transfer
Processor 1524: field transfer
Processor 1525: field transfer
Processor 1526: field transfer
Processor 1527: field transfer
Processor 1528: field transfer
Processor 1529: field transfer
Processor 1530: field transfer
Processor 1531: field transfer
Processor 1532: field transfer
Processor 1533: field transfer
Processor 1534: field transfer
Processor 1535: field transfer
Processor 1536: field transfer
Processor 1537: field transfer
Processor 1538: field transfer
Processor 1539: field transfer
Processor 1540: field transfer
Processor 1541: field transfer
Processor 1542: field transfer
Processor 1543: field transfer
Processor 1544: field transfer
Processor 1545: field transfer
Processor 1546: field transfer
Processor 1547: field transfer
Processor 1548: field transfer
Processor 1549: field transfer
Processor 1550: field transfer
Processor 1551: field transfer
Processor 1552: field transfer
Processor 1553: field transfer
Processor 1554: field transfer
Processor 1555: field transfer
Processor 1556: field transfer
Processor 1557: field transfer
Processor 1558: field transfer
Processor 1559: field transfer
Processor 1560: field transfer
Processor 1561: field transfer
Processor 1562: field transfer
Processor 1563: field transfer
Processor 1564: field transfer
Processor 1565: field transfer
Processor 1566: field transfer
Processor 1567: field transfer
Processor 1568: field transfer
Processor 1569: field transfer
Processor 1570: field transfer
Processor 1571: field transfer
Processor 1572: field transfer
Processor 1573: field transfer
Processor 1574: field transfer
Processor 1575: field transfer
Processor 1576: field transfer
Processor 1577: field transfer
Processor 1578: field transfer
Processor 1579: field transfer
Processor 1580: field transfer
Processor 1581: field transfer
Processor 1582: field transfer
Processor 1583: field transfer
Processor 1584: field transfer
Processor 1585: field transfer
Processor 1586: field transfer
Processor 1587: field transfer
Processor 1588: field transfer
Processor 1589: field transfer
Processor 1590: field transfer
Processor 1591: field transfer
Processor 1592: field transfer
Processor 1593: field transfer
Processor 1594: field transfer
Processor 1595: field transfer
Processor 1596: field transfer
Processor 1597: field transfer
Processor 1598: field transfer
Processor 1599: field transfer
Processor 1600: field transfer
Processor 1601: field transfer
Processor 1602: field transfer
Processor 1603: field transfer
Processor 1604: field transfer
Processor 1605: field transfer
Processor 1606: field transfer
Processor 1607: field transfer
Processor 1608: field transfer
Processor 1609: field transfer
Processor 1610: field transfer
Processor 1611: field transfer
Processor 1612: field transfer
Processor 1613: field transfer
Processor 1614: field transfer
Processor 1615: field transfer
Processor 1616: field transfer
Processor 1617: field transfer
Processor 1618: field transfer
Processor 1619: field transfer
Processor 1620: field transfer
Processor 1621: field transfer
Processor 1622: field transfer
Processor 1623: field transfer
Processor 1624: field transfer
Processor 1625: field transfer
Processor 1626: field transfer
Processor 1627: field transfer
Processor 1628: field transfer
Processor 1629: field transfer
Processor 1630: field transfer
Processor 1631: field transfer
Processor 1632: field transfer
Processor 1633: field transfer
Processor 1634: field transfer
Processor 1635: field transfer
Processor 1636: field transfer
Processor 1637: field transfer
Processor 1638: field transfer
Processor 1639: field transfer
Processor 1640: field transfer
Processor 1641: field transfer
Processor 1642: field transfer
Processor 1643: field transfer
Processor 1644: field transfer
Processor 1645: field transfer
Processor 1646: field transfer
Processor 1647: field transfer
Processor 1648: field transfer
Processor 1649: field transfer
Processor 1650: field transfer
Processor 1651: field transfer
Processor 1652: field transfer
Processor 1653: field transfer
Processor 1654: field transfer
Processor 1655: field transfer
Processor 1656: field transfer
Processor 1657: field transfer
Processor 1658: field transfer
Processor 1659: field transfer
Processor 1660: field transfer
Processor 1661: field transfer
Processor 1662: field transfer
Processor 1663: field transfer
Processor 1664: field transfer
Processor 1665: field transfer
Processor 1666: field transfer
Processor 1667: field transfer
Processor 1668: field transfer
Processor 1669: field transfer
Processor 1670: field transfer
Processor 1671: field transfer
Processor 1672: field transfer
Processor 1673: field transfer
Processor 1674: field transfer
Processor 1675: field transfer
Processor 1676: field transfer
Processor 1677: field transfer
Processor 1678: field transfer
Processor 1679: field transfer
Processor 1680: field transfer
Processor 1681: field transfer
Processor 1682: field transfer
Processor 1683: field transfer
Processor 1684: field transfer
Processor 1685: field transfer
Processor 1686: field transfer
Processor 1687: field transfer
Processor 1688: field transfer
Processor 1689: field transfer
Processor 1690: field transfer
Processor 1691: field transfer
Processor 1692: field transfer
Processor 1693: field transfer
Processor 1694: field transfer
Processor 1695: field transfer
Processor 1696: field transfer
Processor 1697: field transfer
Processor 1698: field transfer
Processor 1699: field transfer
Processor 1700: field transfer
Processor 1701: field transfer
Processor 1702: field transfer
Processor 1703: field transfer
Processor 1704: field transfer
Processor 1705: field transfer
Processor 1706: field transfer
Processor 1707: field transfer
Processor 1708: field transfer
Processor 1709: field transfer
Processor 1710: field transfer
Processor 1711: field transfer
Processor 1712: field transfer
Processor 1713: field transfer
Processor 1714: field transfer
Processor 1715: field transfer
Processor 1716: field transfer
Processor 1717: field transfer
Processor 1718: field transfer
Processor 1719: field transfer
Processor 1720: field transfer
Processor 1721: field transfer
Processor 1722: field transfer
Processor 1723: field transfer
Processor 1724: field transfer
Processor 1725: field transfer
Processor 1726: field transfer
Processor 1727: field transfer
Processor 1728: field transfer
Processor 1729: field transfer
Processor 1730: field transfer
Processor 1731: field transfer
Processor 1732: field transfer
Processor 1733: field transfer
Processor 1734: field transfer
Processor 1735: field transfer
Processor 1736: field transfer
Processor 1737: field transfer
Processor 1738: field transfer
Processor 1739: field transfer
Processor 1740: field transfer
Processor 1741: field transfer
Processor 1742: field transfer
Processor 1743: field transfer
Processor 1744: field transfer
Processor 1745: field transfer
Processor 1746: field transfer
Processor 1747: field transfer
Processor 1748: field transfer
Processor 1749: field transfer
Processor 1750: field transfer
Processor 1751: field transfer
Processor 1752: field transfer
Processor 1753: field transfer
Processor 1754: field transfer
Processor 1755: field transfer
Processor 1756: field transfer
Processor 1757: field transfer
Processor 1758: field transfer
Processor 1759: field transfer
Processor 1760: field transfer
Processor 1761: field transfer
Processor 1762: field transfer
Processor 1763: field transfer
Processor 1764: field transfer
Processor 1765: field transfer
Processor 1766: field transfer
Processor 1767: field transfer
Processor 1768: field transfer
Processor 1769: field transfer
Processor 1770: field transfer
Processor 1771: field transfer
Processor 1772: field transfer
Processor 1773: field transfer
Processor 1774: field transfer
Processor 1775: field transfer
Processor 1776: field transfer
Processor 1777: field transfer
Processor 1778: field transfer
Processor 1779: field transfer
Processor 1780: field transfer
Processor 1781: field transfer
Processor 1782: field transfer
Processor 1783: field transfer
Processor 1784: field transfer
Processor 1785: field transfer
Processor 1786: field transfer
Processor 1787: field transfer
Processor 1788: field transfer
Processor 1789: field transfer
Processor 1790: field transfer
Processor 1791: field transfer

End

