/*---------------------------------------------------------------------------*\
  =========                 |
  \\      /  F ield         | OpenFOAM: The Open Source CFD Toolbox
   \\    /   O peration     | Website:  https://openfoam.org
    \\  /    A nd           | Version:  7
     \\/     M anipulation  |
\*---------------------------------------------------------------------------*/
Build  : 7
Exec   : snappyHexMesh -parallel -overwrite
Date   : Oct 14 2020
Time   : 15:57:26
Host   : "cpu-p-288"
PID    : 223327
I/O    : uncollated
Case   : /rds/user/hpcbras1/hpc-work/csd3/cclake-ib-gcc9-ompi3-ucx/openfoam/Openfoam_Mbike_csd3_cclake_ib_gcc9_ompi3_ucx_1792_56
nProcs : 1792
Slaves : 
1791
(
"cpu-p-288.223328"
"cpu-p-288.223329"
"cpu-p-288.223330"
"cpu-p-288.223331"
"cpu-p-288.223332"
"cpu-p-288.223333"
"cpu-p-288.223334"
"cpu-p-288.223335"
"cpu-p-288.223336"
"cpu-p-288.223337"
"cpu-p-288.223338"
"cpu-p-288.223339"
"cpu-p-288.223340"
"cpu-p-288.223341"
"cpu-p-288.223342"
"cpu-p-288.223343"
"cpu-p-288.223344"
"cpu-p-288.223345"
"cpu-p-288.223346"
"cpu-p-288.223347"
"cpu-p-288.223348"
"cpu-p-288.223349"
"cpu-p-288.223350"
"cpu-p-288.223351"
"cpu-p-288.223352"
"cpu-p-288.223353"
"cpu-p-288.223354"
"cpu-p-288.223355"
"cpu-p-288.223362"
"cpu-p-288.223363"
"cpu-p-288.223374"
"cpu-p-288.223377"
"cpu-p-288.223381"
"cpu-p-288.223382"
"cpu-p-288.223385"
"cpu-p-288.223387"
"cpu-p-288.223388"
"cpu-p-288.223389"
"cpu-p-288.223390"
"cpu-p-288.223391"
"cpu-p-288.223392"
"cpu-p-288.223393"
"cpu-p-288.223394"
"cpu-p-288.223396"
"cpu-p-288.223398"
"cpu-p-288.223400"
"cpu-p-288.223402"
"cpu-p-288.223403"
"cpu-p-288.223404"
"cpu-p-288.223405"
"cpu-p-288.223406"
"cpu-p-288.223408"
"cpu-p-288.223411"
"cpu-p-288.223413"
"cpu-p-288.223414"
"cpu-p-289.116977"
"cpu-p-289.116978"
"cpu-p-289.116979"
"cpu-p-289.116980"
"cpu-p-289.116981"
"cpu-p-289.116982"
"cpu-p-289.116983"
"cpu-p-289.116984"
"cpu-p-289.116985"
"cpu-p-289.116986"
"cpu-p-289.116987"
"cpu-p-289.116988"
"cpu-p-289.116989"
"cpu-p-289.116990"
"cpu-p-289.116991"
"cpu-p-289.116992"
"cpu-p-289.116993"
"cpu-p-289.116994"
"cpu-p-289.116995"
"cpu-p-289.116996"
"cpu-p-289.116997"
"cpu-p-289.116998"
"cpu-p-289.116999"
"cpu-p-289.117000"
"cpu-p-289.117001"
"cpu-p-289.117002"
"cpu-p-289.117003"
"cpu-p-289.117004"
"cpu-p-289.117005"
"cpu-p-289.117006"
"cpu-p-289.117007"
"cpu-p-289.117008"
"cpu-p-289.117009"
"cpu-p-289.117010"
"cpu-p-289.117011"
"cpu-p-289.117012"
"cpu-p-289.117013"
"cpu-p-289.117014"
"cpu-p-289.117015"
"cpu-p-289.117016"
"cpu-p-289.117017"
"cpu-p-289.117018"
"cpu-p-289.117019"
"cpu-p-289.117020"
"cpu-p-289.117021"
"cpu-p-289.117022"
"cpu-p-289.117023"
"cpu-p-289.117024"
"cpu-p-289.117025"
"cpu-p-289.117040"
"cpu-p-289.117055"
"cpu-p-289.117056"
"cpu-p-289.117062"
"cpu-p-289.117068"
"cpu-p-289.117071"
"cpu-p-289.117075"
"cpu-p-290.258119"
"cpu-p-290.258120"
"cpu-p-290.258121"
"cpu-p-290.258122"
"cpu-p-290.258123"
"cpu-p-290.258124"
"cpu-p-290.258125"
"cpu-p-290.258126"
"cpu-p-290.258127"
"cpu-p-290.258128"
"cpu-p-290.258129"
"cpu-p-290.258130"
"cpu-p-290.258131"
"cpu-p-290.258132"
"cpu-p-290.258133"
"cpu-p-290.258134"
"cpu-p-290.258135"
"cpu-p-290.258136"
"cpu-p-290.258137"
"cpu-p-290.258138"
"cpu-p-290.258139"
"cpu-p-290.258140"
"cpu-p-290.258141"
"cpu-p-290.258142"
"cpu-p-290.258143"
"cpu-p-290.258144"
"cpu-p-290.258145"
"cpu-p-290.258146"
"cpu-p-290.258147"
"cpu-p-290.258148"
"cpu-p-290.258149"
"cpu-p-290.258150"
"cpu-p-290.258151"
"cpu-p-290.258152"
"cpu-p-290.258153"
"cpu-p-290.258154"
"cpu-p-290.258155"
"cpu-p-290.258156"
"cpu-p-290.258157"
"cpu-p-290.258158"
"cpu-p-290.258159"
"cpu-p-290.258160"
"cpu-p-290.258161"
"cpu-p-290.258162"
"cpu-p-290.258163"
"cpu-p-290.258164"
"cpu-p-290.258165"
"cpu-p-290.258166"
"cpu-p-290.258167"
"cpu-p-290.258168"
"cpu-p-290.258169"
"cpu-p-290.258170"
"cpu-p-290.258191"
"cpu-p-290.258213"
"cpu-p-290.258215"
"cpu-p-290.258218"
"cpu-p-291.168048"
"cpu-p-291.168049"
"cpu-p-291.168050"
"cpu-p-291.168051"
"cpu-p-291.168052"
"cpu-p-291.168053"
"cpu-p-291.168054"
"cpu-p-291.168055"
"cpu-p-291.168056"
"cpu-p-291.168057"
"cpu-p-291.168058"
"cpu-p-291.168059"
"cpu-p-291.168060"
"cpu-p-291.168061"
"cpu-p-291.168062"
"cpu-p-291.168063"
"cpu-p-291.168064"
"cpu-p-291.168065"
"cpu-p-291.168066"
"cpu-p-291.168067"
"cpu-p-291.168068"
"cpu-p-291.168069"
"cpu-p-291.168070"
"cpu-p-291.168071"
"cpu-p-291.168072"
"cpu-p-291.168073"
"cpu-p-291.168074"
"cpu-p-291.168075"
"cpu-p-291.168076"
"cpu-p-291.168077"
"cpu-p-291.168078"
"cpu-p-291.168079"
"cpu-p-291.168080"
"cpu-p-291.168081"
"cpu-p-291.168082"
"cpu-p-291.168083"
"cpu-p-291.168084"
"cpu-p-291.168085"
"cpu-p-291.168086"
"cpu-p-291.168087"
"cpu-p-291.168088"
"cpu-p-291.168089"
"cpu-p-291.168090"
"cpu-p-291.168091"
"cpu-p-291.168092"
"cpu-p-291.168093"
"cpu-p-291.168094"
"cpu-p-291.168095"
"cpu-p-291.168096"
"cpu-p-291.168097"
"cpu-p-291.168098"
"cpu-p-291.168099"
"cpu-p-291.168100"
"cpu-p-291.168101"
"cpu-p-291.168105"
"cpu-p-291.168121"
"cpu-p-292.259498"
"cpu-p-292.259499"
"cpu-p-292.259500"
"cpu-p-292.259501"
"cpu-p-292.259502"
"cpu-p-292.259503"
"cpu-p-292.259504"
"cpu-p-292.259505"
"cpu-p-292.259506"
"cpu-p-292.259507"
"cpu-p-292.259508"
"cpu-p-292.259509"
"cpu-p-292.259510"
"cpu-p-292.259511"
"cpu-p-292.259512"
"cpu-p-292.259513"
"cpu-p-292.259514"
"cpu-p-292.259515"
"cpu-p-292.259516"
"cpu-p-292.259517"
"cpu-p-292.259518"
"cpu-p-292.259519"
"cpu-p-292.259520"
"cpu-p-292.259521"
"cpu-p-292.259522"
"cpu-p-292.259523"
"cpu-p-292.259524"
"cpu-p-292.259525"
"cpu-p-292.259526"
"cpu-p-292.259527"
"cpu-p-292.259528"
"cpu-p-292.259529"
"cpu-p-292.259530"
"cpu-p-292.259531"
"cpu-p-292.259532"
"cpu-p-292.259533"
"cpu-p-292.259534"
"cpu-p-292.259535"
"cpu-p-292.259536"
"cpu-p-292.259537"
"cpu-p-292.259538"
"cpu-p-292.259539"
"cpu-p-292.259550"
"cpu-p-292.259553"
"cpu-p-292.259563"
"cpu-p-292.259568"
"cpu-p-292.259570"
"cpu-p-292.259573"
"cpu-p-292.259575"
"cpu-p-292.259577"
"cpu-p-292.259580"
"cpu-p-292.259583"
"cpu-p-292.259585"
"cpu-p-292.259587"
"cpu-p-292.259589"
"cpu-p-292.259590"
"cpu-p-293.266650"
"cpu-p-293.266651"
"cpu-p-293.266652"
"cpu-p-293.266653"
"cpu-p-293.266654"
"cpu-p-293.266655"
"cpu-p-293.266656"
"cpu-p-293.266657"
"cpu-p-293.266658"
"cpu-p-293.266659"
"cpu-p-293.266660"
"cpu-p-293.266661"
"cpu-p-293.266662"
"cpu-p-293.266663"
"cpu-p-293.266664"
"cpu-p-293.266665"
"cpu-p-293.266666"
"cpu-p-293.266667"
"cpu-p-293.266668"
"cpu-p-293.266669"
"cpu-p-293.266670"
"cpu-p-293.266671"
"cpu-p-293.266672"
"cpu-p-293.266673"
"cpu-p-293.266674"
"cpu-p-293.266675"
"cpu-p-293.266676"
"cpu-p-293.266677"
"cpu-p-293.266678"
"cpu-p-293.266679"
"cpu-p-293.266680"
"cpu-p-293.266681"
"cpu-p-293.266682"
"cpu-p-293.266683"
"cpu-p-293.266684"
"cpu-p-293.266685"
"cpu-p-293.266686"
"cpu-p-293.266687"
"cpu-p-293.266688"
"cpu-p-293.266689"
"cpu-p-293.266690"
"cpu-p-293.266691"
"cpu-p-293.266692"
"cpu-p-293.266693"
"cpu-p-293.266694"
"cpu-p-293.266695"
"cpu-p-293.266696"
"cpu-p-293.266697"
"cpu-p-293.266698"
"cpu-p-293.266699"
"cpu-p-293.266700"
"cpu-p-293.266701"
"cpu-p-293.266717"
"cpu-p-293.266734"
"cpu-p-293.266737"
"cpu-p-293.266743"
"cpu-p-294.248374"
"cpu-p-294.248375"
"cpu-p-294.248376"
"cpu-p-294.248377"
"cpu-p-294.248378"
"cpu-p-294.248379"
"cpu-p-294.248380"
"cpu-p-294.248381"
"cpu-p-294.248382"
"cpu-p-294.248383"
"cpu-p-294.248384"
"cpu-p-294.248385"
"cpu-p-294.248386"
"cpu-p-294.248387"
"cpu-p-294.248388"
"cpu-p-294.248389"
"cpu-p-294.248390"
"cpu-p-294.248391"
"cpu-p-294.248392"
"cpu-p-294.248393"
"cpu-p-294.248394"
"cpu-p-294.248395"
"cpu-p-294.248396"
"cpu-p-294.248397"
"cpu-p-294.248398"
"cpu-p-294.248399"
"cpu-p-294.248400"
"cpu-p-294.248401"
"cpu-p-294.248402"
"cpu-p-294.248403"
"cpu-p-294.248404"
"cpu-p-294.248405"
"cpu-p-294.248406"
"cpu-p-294.248407"
"cpu-p-294.248408"
"cpu-p-294.248409"
"cpu-p-294.248410"
"cpu-p-294.248411"
"cpu-p-294.248412"
"cpu-p-294.248413"
"cpu-p-294.248414"
"cpu-p-294.248419"
"cpu-p-294.248423"
"cpu-p-294.248433"
"cpu-p-294.248437"
"cpu-p-294.248439"
"cpu-p-294.248440"
"cpu-p-294.248445"
"cpu-p-294.248450"
"cpu-p-294.248451"
"cpu-p-294.248454"
"cpu-p-294.248455"
"cpu-p-294.248459"
"cpu-p-294.248460"
"cpu-p-294.248463"
"cpu-p-294.248465"
"cpu-p-312.245526"
"cpu-p-312.245527"
"cpu-p-312.245528"
"cpu-p-312.245529"
"cpu-p-312.245530"
"cpu-p-312.245531"
"cpu-p-312.245532"
"cpu-p-312.245533"
"cpu-p-312.245534"
"cpu-p-312.245535"
"cpu-p-312.245536"
"cpu-p-312.245537"
"cpu-p-312.245538"
"cpu-p-312.245539"
"cpu-p-312.245540"
"cpu-p-312.245541"
"cpu-p-312.245542"
"cpu-p-312.245543"
"cpu-p-312.245544"
"cpu-p-312.245546"
"cpu-p-312.245547"
"cpu-p-312.245548"
"cpu-p-312.245549"
"cpu-p-312.245550"
"cpu-p-312.245551"
"cpu-p-312.245552"
"cpu-p-312.245553"
"cpu-p-312.245554"
"cpu-p-312.245555"
"cpu-p-312.245556"
"cpu-p-312.245557"
"cpu-p-312.245558"
"cpu-p-312.245559"
"cpu-p-312.245560"
"cpu-p-312.245561"
"cpu-p-312.245562"
"cpu-p-312.245563"
"cpu-p-312.245564"
"cpu-p-312.245565"
"cpu-p-312.245566"
"cpu-p-312.245567"
"cpu-p-312.245568"
"cpu-p-312.245569"
"cpu-p-312.245570"
"cpu-p-312.245571"
"cpu-p-312.245572"
"cpu-p-312.245573"
"cpu-p-312.245574"
"cpu-p-312.245575"
"cpu-p-312.245576"
"cpu-p-312.245577"
"cpu-p-312.245578"
"cpu-p-312.245579"
"cpu-p-312.245580"
"cpu-p-312.245581"
"cpu-p-312.245582"
"cpu-p-313.237447"
"cpu-p-313.237448"
"cpu-p-313.237449"
"cpu-p-313.237450"
"cpu-p-313.237451"
"cpu-p-313.237452"
"cpu-p-313.237453"
"cpu-p-313.237454"
"cpu-p-313.237455"
"cpu-p-313.237456"
"cpu-p-313.237457"
"cpu-p-313.237458"
"cpu-p-313.237459"
"cpu-p-313.237460"
"cpu-p-313.237461"
"cpu-p-313.237462"
"cpu-p-313.237463"
"cpu-p-313.237464"
"cpu-p-313.237465"
"cpu-p-313.237466"
"cpu-p-313.237467"
"cpu-p-313.237468"
"cpu-p-313.237469"
"cpu-p-313.237471"
"cpu-p-313.237472"
"cpu-p-313.237473"
"cpu-p-313.237474"
"cpu-p-313.237475"
"cpu-p-313.237476"
"cpu-p-313.237478"
"cpu-p-313.237479"
"cpu-p-313.237480"
"cpu-p-313.237481"
"cpu-p-313.237482"
"cpu-p-313.237483"
"cpu-p-313.237484"
"cpu-p-313.237485"
"cpu-p-313.237486"
"cpu-p-313.237487"
"cpu-p-313.237488"
"cpu-p-313.237489"
"cpu-p-313.237490"
"cpu-p-313.237491"
"cpu-p-313.237492"
"cpu-p-313.237493"
"cpu-p-313.237495"
"cpu-p-313.237496"
"cpu-p-313.237497"
"cpu-p-313.237498"
"cpu-p-313.237499"
"cpu-p-313.237500"
"cpu-p-313.237501"
"cpu-p-313.237502"
"cpu-p-313.237503"
"cpu-p-313.237504"
"cpu-p-313.237505"
"cpu-p-314.198813"
"cpu-p-314.198814"
"cpu-p-314.198815"
"cpu-p-314.198816"
"cpu-p-314.198817"
"cpu-p-314.198818"
"cpu-p-314.198819"
"cpu-p-314.198821"
"cpu-p-314.198824"
"cpu-p-314.198825"
"cpu-p-314.198826"
"cpu-p-314.198827"
"cpu-p-314.198828"
"cpu-p-314.198829"
"cpu-p-314.198830"
"cpu-p-314.198831"
"cpu-p-314.198832"
"cpu-p-314.198833"
"cpu-p-314.198834"
"cpu-p-314.198835"
"cpu-p-314.198836"
"cpu-p-314.198837"
"cpu-p-314.198838"
"cpu-p-314.198839"
"cpu-p-314.198840"
"cpu-p-314.198841"
"cpu-p-314.198842"
"cpu-p-314.198843"
"cpu-p-314.198844"
"cpu-p-314.198845"
"cpu-p-314.198846"
"cpu-p-314.198847"
"cpu-p-314.198848"
"cpu-p-314.198849"
"cpu-p-314.198850"
"cpu-p-314.198851"
"cpu-p-314.198852"
"cpu-p-314.198853"
"cpu-p-314.198854"
"cpu-p-314.198855"
"cpu-p-314.198856"
"cpu-p-314.198857"
"cpu-p-314.198858"
"cpu-p-314.198859"
"cpu-p-314.198862"
"cpu-p-314.198863"
"cpu-p-314.198864"
"cpu-p-314.198865"
"cpu-p-314.198866"
"cpu-p-314.198867"
"cpu-p-314.198868"
"cpu-p-314.198869"
"cpu-p-314.198870"
"cpu-p-314.198871"
"cpu-p-314.198872"
"cpu-p-314.198873"
"cpu-p-315.174263"
"cpu-p-315.174264"
"cpu-p-315.174265"
"cpu-p-315.174266"
"cpu-p-315.174267"
"cpu-p-315.174268"
"cpu-p-315.174269"
"cpu-p-315.174270"
"cpu-p-315.174271"
"cpu-p-315.174272"
"cpu-p-315.174273"
"cpu-p-315.174274"
"cpu-p-315.174275"
"cpu-p-315.174276"
"cpu-p-315.174277"
"cpu-p-315.174278"
"cpu-p-315.174279"
"cpu-p-315.174280"
"cpu-p-315.174281"
"cpu-p-315.174282"
"cpu-p-315.174283"
"cpu-p-315.174284"
"cpu-p-315.174285"
"cpu-p-315.174286"
"cpu-p-315.174287"
"cpu-p-315.174288"
"cpu-p-315.174289"
"cpu-p-315.174290"
"cpu-p-315.174291"
"cpu-p-315.174292"
"cpu-p-315.174293"
"cpu-p-315.174294"
"cpu-p-315.174295"
"cpu-p-315.174296"
"cpu-p-315.174297"
"cpu-p-315.174298"
"cpu-p-315.174299"
"cpu-p-315.174300"
"cpu-p-315.174301"
"cpu-p-315.174302"
"cpu-p-315.174303"
"cpu-p-315.174304"
"cpu-p-315.174305"
"cpu-p-315.174306"
"cpu-p-315.174307"
"cpu-p-315.174308"
"cpu-p-315.174309"
"cpu-p-315.174310"
"cpu-p-315.174311"
"cpu-p-315.174312"
"cpu-p-315.174313"
"cpu-p-315.174314"
"cpu-p-315.174315"
"cpu-p-315.174316"
"cpu-p-315.174317"
"cpu-p-315.174318"
"cpu-p-316.163121"
"cpu-p-316.163122"
"cpu-p-316.163123"
"cpu-p-316.163124"
"cpu-p-316.163125"
"cpu-p-316.163126"
"cpu-p-316.163127"
"cpu-p-316.163128"
"cpu-p-316.163129"
"cpu-p-316.163130"
"cpu-p-316.163131"
"cpu-p-316.163132"
"cpu-p-316.163133"
"cpu-p-316.163134"
"cpu-p-316.163135"
"cpu-p-316.163136"
"cpu-p-316.163137"
"cpu-p-316.163138"
"cpu-p-316.163139"
"cpu-p-316.163140"
"cpu-p-316.163141"
"cpu-p-316.163142"
"cpu-p-316.163143"
"cpu-p-316.163144"
"cpu-p-316.163145"
"cpu-p-316.163146"
"cpu-p-316.163147"
"cpu-p-316.163148"
"cpu-p-316.163149"
"cpu-p-316.163150"
"cpu-p-316.163151"
"cpu-p-316.163152"
"cpu-p-316.163153"
"cpu-p-316.163154"
"cpu-p-316.163156"
"cpu-p-316.163157"
"cpu-p-316.163158"
"cpu-p-316.163159"
"cpu-p-316.163160"
"cpu-p-316.163161"
"cpu-p-316.163162"
"cpu-p-316.163163"
"cpu-p-316.163164"
"cpu-p-316.163165"
"cpu-p-316.163166"
"cpu-p-316.163167"
"cpu-p-316.163168"
"cpu-p-316.163169"
"cpu-p-316.163170"
"cpu-p-316.163171"
"cpu-p-316.163172"
"cpu-p-316.163173"
"cpu-p-316.163174"
"cpu-p-316.163175"
"cpu-p-316.163176"
"cpu-p-316.163177"
"cpu-p-317.174203"
"cpu-p-317.174204"
"cpu-p-317.174205"
"cpu-p-317.174206"
"cpu-p-317.174207"
"cpu-p-317.174208"
"cpu-p-317.174209"
"cpu-p-317.174210"
"cpu-p-317.174211"
"cpu-p-317.174212"
"cpu-p-317.174213"
"cpu-p-317.174214"
"cpu-p-317.174215"
"cpu-p-317.174216"
"cpu-p-317.174217"
"cpu-p-317.174218"
"cpu-p-317.174219"
"cpu-p-317.174220"
"cpu-p-317.174221"
"cpu-p-317.174222"
"cpu-p-317.174223"
"cpu-p-317.174224"
"cpu-p-317.174225"
"cpu-p-317.174226"
"cpu-p-317.174227"
"cpu-p-317.174228"
"cpu-p-317.174229"
"cpu-p-317.174230"
"cpu-p-317.174231"
"cpu-p-317.174232"
"cpu-p-317.174233"
"cpu-p-317.174234"
"cpu-p-317.174235"
"cpu-p-317.174236"
"cpu-p-317.174237"
"cpu-p-317.174238"
"cpu-p-317.174239"
"cpu-p-317.174240"
"cpu-p-317.174241"
"cpu-p-317.174242"
"cpu-p-317.174243"
"cpu-p-317.174244"
"cpu-p-317.174245"
"cpu-p-317.174246"
"cpu-p-317.174247"
"cpu-p-317.174248"
"cpu-p-317.174249"
"cpu-p-317.174250"
"cpu-p-317.174251"
"cpu-p-317.174252"
"cpu-p-317.174253"
"cpu-p-317.174254"
"cpu-p-317.174255"
"cpu-p-317.174256"
"cpu-p-317.174257"
"cpu-p-317.174258"
"cpu-p-318.161719"
"cpu-p-318.161720"
"cpu-p-318.161721"
"cpu-p-318.161722"
"cpu-p-318.161723"
"cpu-p-318.161724"
"cpu-p-318.161725"
"cpu-p-318.161726"
"cpu-p-318.161727"
"cpu-p-318.161728"
"cpu-p-318.161729"
"cpu-p-318.161730"
"cpu-p-318.161731"
"cpu-p-318.161732"
"cpu-p-318.161733"
"cpu-p-318.161734"
"cpu-p-318.161735"
"cpu-p-318.161736"
"cpu-p-318.161737"
"cpu-p-318.161738"
"cpu-p-318.161739"
"cpu-p-318.161740"
"cpu-p-318.161741"
"cpu-p-318.161742"
"cpu-p-318.161743"
"cpu-p-318.161744"
"cpu-p-318.161745"
"cpu-p-318.161746"
"cpu-p-318.161747"
"cpu-p-318.161748"
"cpu-p-318.161749"
"cpu-p-318.161750"
"cpu-p-318.161751"
"cpu-p-318.161752"
"cpu-p-318.161753"
"cpu-p-318.161754"
"cpu-p-318.161755"
"cpu-p-318.161756"
"cpu-p-318.161757"
"cpu-p-318.161758"
"cpu-p-318.161759"
"cpu-p-318.161760"
"cpu-p-318.161761"
"cpu-p-318.161762"
"cpu-p-318.161763"
"cpu-p-318.161764"
"cpu-p-318.161765"
"cpu-p-318.161766"
"cpu-p-318.161768"
"cpu-p-318.161769"
"cpu-p-318.161770"
"cpu-p-318.161771"
"cpu-p-318.161772"
"cpu-p-318.161773"
"cpu-p-318.161774"
"cpu-p-318.161775"
"cpu-p-319.160444"
"cpu-p-319.160445"
"cpu-p-319.160446"
"cpu-p-319.160447"
"cpu-p-319.160448"
"cpu-p-319.160449"
"cpu-p-319.160450"
"cpu-p-319.160451"
"cpu-p-319.160452"
"cpu-p-319.160453"
"cpu-p-319.160454"
"cpu-p-319.160455"
"cpu-p-319.160456"
"cpu-p-319.160457"
"cpu-p-319.160458"
"cpu-p-319.160459"
"cpu-p-319.160460"
"cpu-p-319.160461"
"cpu-p-319.160462"
"cpu-p-319.160463"
"cpu-p-319.160464"
"cpu-p-319.160465"
"cpu-p-319.160466"
"cpu-p-319.160467"
"cpu-p-319.160468"
"cpu-p-319.160469"
"cpu-p-319.160470"
"cpu-p-319.160471"
"cpu-p-319.160472"
"cpu-p-319.160473"
"cpu-p-319.160474"
"cpu-p-319.160475"
"cpu-p-319.160476"
"cpu-p-319.160477"
"cpu-p-319.160478"
"cpu-p-319.160479"
"cpu-p-319.160480"
"cpu-p-319.160481"
"cpu-p-319.160484"
"cpu-p-319.160485"
"cpu-p-319.160486"
"cpu-p-319.160487"
"cpu-p-319.160488"
"cpu-p-319.160489"
"cpu-p-319.160490"
"cpu-p-319.160491"
"cpu-p-319.160492"
"cpu-p-319.160493"
"cpu-p-319.160494"
"cpu-p-319.160495"
"cpu-p-319.160496"
"cpu-p-319.160497"
"cpu-p-319.160498"
"cpu-p-319.160499"
"cpu-p-319.160500"
"cpu-p-319.160501"
"cpu-p-320.162303"
"cpu-p-320.162304"
"cpu-p-320.162305"
"cpu-p-320.162306"
"cpu-p-320.162307"
"cpu-p-320.162308"
"cpu-p-320.162309"
"cpu-p-320.162310"
"cpu-p-320.162311"
"cpu-p-320.162312"
"cpu-p-320.162313"
"cpu-p-320.162314"
"cpu-p-320.162315"
"cpu-p-320.162316"
"cpu-p-320.162317"
"cpu-p-320.162318"
"cpu-p-320.162319"
"cpu-p-320.162320"
"cpu-p-320.162321"
"cpu-p-320.162322"
"cpu-p-320.162323"
"cpu-p-320.162324"
"cpu-p-320.162325"
"cpu-p-320.162326"
"cpu-p-320.162327"
"cpu-p-320.162328"
"cpu-p-320.162329"
"cpu-p-320.162330"
"cpu-p-320.162331"
"cpu-p-320.162332"
"cpu-p-320.162333"
"cpu-p-320.162334"
"cpu-p-320.162335"
"cpu-p-320.162336"
"cpu-p-320.162337"
"cpu-p-320.162338"
"cpu-p-320.162339"
"cpu-p-320.162341"
"cpu-p-320.162344"
"cpu-p-320.162346"
"cpu-p-320.162347"
"cpu-p-320.162348"
"cpu-p-320.162349"
"cpu-p-320.162350"
"cpu-p-320.162351"
"cpu-p-320.162352"
"cpu-p-320.162353"
"cpu-p-320.162354"
"cpu-p-320.162355"
"cpu-p-320.162356"
"cpu-p-320.162357"
"cpu-p-320.162358"
"cpu-p-320.162359"
"cpu-p-320.162360"
"cpu-p-320.162361"
"cpu-p-320.162362"
"cpu-p-321.223203"
"cpu-p-321.223204"
"cpu-p-321.223205"
"cpu-p-321.223206"
"cpu-p-321.223207"
"cpu-p-321.223208"
"cpu-p-321.223209"
"cpu-p-321.223210"
"cpu-p-321.223211"
"cpu-p-321.223212"
"cpu-p-321.223213"
"cpu-p-321.223214"
"cpu-p-321.223215"
"cpu-p-321.223216"
"cpu-p-321.223217"
"cpu-p-321.223218"
"cpu-p-321.223219"
"cpu-p-321.223220"
"cpu-p-321.223221"
"cpu-p-321.223222"
"cpu-p-321.223223"
"cpu-p-321.223224"
"cpu-p-321.223225"
"cpu-p-321.223226"
"cpu-p-321.223227"
"cpu-p-321.223228"
"cpu-p-321.223229"
"cpu-p-321.223230"
"cpu-p-321.223231"
"cpu-p-321.223232"
"cpu-p-321.223233"
"cpu-p-321.223234"
"cpu-p-321.223235"
"cpu-p-321.223236"
"cpu-p-321.223237"
"cpu-p-321.223238"
"cpu-p-321.223239"
"cpu-p-321.223240"
"cpu-p-321.223241"
"cpu-p-321.223242"
"cpu-p-321.223243"
"cpu-p-321.223244"
"cpu-p-321.223245"
"cpu-p-321.223246"
"cpu-p-321.223247"
"cpu-p-321.223248"
"cpu-p-321.223249"
"cpu-p-321.223250"
"cpu-p-321.223251"
"cpu-p-321.223252"
"cpu-p-321.223253"
"cpu-p-321.223254"
"cpu-p-321.223255"
"cpu-p-321.223256"
"cpu-p-321.223257"
"cpu-p-321.223258"
"cpu-p-322.220344"
"cpu-p-322.220345"
"cpu-p-322.220346"
"cpu-p-322.220347"
"cpu-p-322.220348"
"cpu-p-322.220349"
"cpu-p-322.220350"
"cpu-p-322.220351"
"cpu-p-322.220352"
"cpu-p-322.220353"
"cpu-p-322.220354"
"cpu-p-322.220355"
"cpu-p-322.220356"
"cpu-p-322.220357"
"cpu-p-322.220358"
"cpu-p-322.220359"
"cpu-p-322.220360"
"cpu-p-322.220361"
"cpu-p-322.220362"
"cpu-p-322.220363"
"cpu-p-322.220364"
"cpu-p-322.220365"
"cpu-p-322.220366"
"cpu-p-322.220367"
"cpu-p-322.220369"
"cpu-p-322.220370"
"cpu-p-322.220371"
"cpu-p-322.220372"
"cpu-p-322.220373"
"cpu-p-322.220374"
"cpu-p-322.220375"
"cpu-p-322.220376"
"cpu-p-322.220377"
"cpu-p-322.220378"
"cpu-p-322.220379"
"cpu-p-322.220380"
"cpu-p-322.220381"
"cpu-p-322.220382"
"cpu-p-322.220383"
"cpu-p-322.220384"
"cpu-p-322.220385"
"cpu-p-322.220386"
"cpu-p-322.220387"
"cpu-p-322.220388"
"cpu-p-322.220389"
"cpu-p-322.220390"
"cpu-p-322.220391"
"cpu-p-322.220393"
"cpu-p-322.220394"
"cpu-p-322.220395"
"cpu-p-322.220396"
"cpu-p-322.220397"
"cpu-p-322.220398"
"cpu-p-322.220399"
"cpu-p-322.220400"
"cpu-p-322.220401"
"cpu-p-323.219740"
"cpu-p-323.219741"
"cpu-p-323.219742"
"cpu-p-323.219743"
"cpu-p-323.219744"
"cpu-p-323.219745"
"cpu-p-323.219746"
"cpu-p-323.219747"
"cpu-p-323.219748"
"cpu-p-323.219749"
"cpu-p-323.219750"
"cpu-p-323.219751"
"cpu-p-323.219752"
"cpu-p-323.219753"
"cpu-p-323.219754"
"cpu-p-323.219755"
"cpu-p-323.219756"
"cpu-p-323.219757"
"cpu-p-323.219758"
"cpu-p-323.219759"
"cpu-p-323.219760"
"cpu-p-323.219761"
"cpu-p-323.219762"
"cpu-p-323.219763"
"cpu-p-323.219764"
"cpu-p-323.219765"
"cpu-p-323.219766"
"cpu-p-323.219767"
"cpu-p-323.219768"
"cpu-p-323.219769"
"cpu-p-323.219770"
"cpu-p-323.219771"
"cpu-p-323.219772"
"cpu-p-323.219773"
"cpu-p-323.219774"
"cpu-p-323.219776"
"cpu-p-323.219777"
"cpu-p-323.219778"
"cpu-p-323.219779"
"cpu-p-323.219780"
"cpu-p-323.219781"
"cpu-p-323.219782"
"cpu-p-323.219783"
"cpu-p-323.219784"
"cpu-p-323.219785"
"cpu-p-323.219786"
"cpu-p-323.219787"
"cpu-p-323.219788"
"cpu-p-323.219789"
"cpu-p-323.219790"
"cpu-p-323.219791"
"cpu-p-323.219793"
"cpu-p-323.219794"
"cpu-p-323.219795"
"cpu-p-323.219796"
"cpu-p-323.219797"
"cpu-p-324.210088"
"cpu-p-324.210089"
"cpu-p-324.210090"
"cpu-p-324.210091"
"cpu-p-324.210092"
"cpu-p-324.210093"
"cpu-p-324.210094"
"cpu-p-324.210095"
"cpu-p-324.210096"
"cpu-p-324.210097"
"cpu-p-324.210098"
"cpu-p-324.210100"
"cpu-p-324.210101"
"cpu-p-324.210102"
"cpu-p-324.210103"
"cpu-p-324.210104"
"cpu-p-324.210105"
"cpu-p-324.210106"
"cpu-p-324.210107"
"cpu-p-324.210108"
"cpu-p-324.210109"
"cpu-p-324.210110"
"cpu-p-324.210111"
"cpu-p-324.210112"
"cpu-p-324.210113"
"cpu-p-324.210114"
"cpu-p-324.210115"
"cpu-p-324.210116"
"cpu-p-324.210117"
"cpu-p-324.210118"
"cpu-p-324.210119"
"cpu-p-324.210120"
"cpu-p-324.210121"
"cpu-p-324.210122"
"cpu-p-324.210123"
"cpu-p-324.210124"
"cpu-p-324.210125"
"cpu-p-324.210126"
"cpu-p-324.210127"
"cpu-p-324.210128"
"cpu-p-324.210129"
"cpu-p-324.210130"
"cpu-p-324.210131"
"cpu-p-324.210132"
"cpu-p-324.210133"
"cpu-p-324.210134"
"cpu-p-324.210135"
"cpu-p-324.210136"
"cpu-p-324.210137"
"cpu-p-324.210139"
"cpu-p-324.210140"
"cpu-p-324.210141"
"cpu-p-324.210142"
"cpu-p-324.210143"
"cpu-p-324.210144"
"cpu-p-324.210145"
"cpu-p-325.126549"
"cpu-p-325.126550"
"cpu-p-325.126551"
"cpu-p-325.126552"
"cpu-p-325.126553"
"cpu-p-325.126554"
"cpu-p-325.126555"
"cpu-p-325.126556"
"cpu-p-325.126557"
"cpu-p-325.126558"
"cpu-p-325.126559"
"cpu-p-325.126560"
"cpu-p-325.126561"
"cpu-p-325.126562"
"cpu-p-325.126563"
"cpu-p-325.126564"
"cpu-p-325.126565"
"cpu-p-325.126566"
"cpu-p-325.126567"
"cpu-p-325.126568"
"cpu-p-325.126569"
"cpu-p-325.126570"
"cpu-p-325.126571"
"cpu-p-325.126572"
"cpu-p-325.126573"
"cpu-p-325.126574"
"cpu-p-325.126575"
"cpu-p-325.126576"
"cpu-p-325.126577"
"cpu-p-325.126578"
"cpu-p-325.126579"
"cpu-p-325.126580"
"cpu-p-325.126581"
"cpu-p-325.126582"
"cpu-p-325.126583"
"cpu-p-325.126584"
"cpu-p-325.126585"
"cpu-p-325.126586"
"cpu-p-325.126587"
"cpu-p-325.126588"
"cpu-p-325.126589"
"cpu-p-325.126590"
"cpu-p-325.126591"
"cpu-p-325.126592"
"cpu-p-325.126593"
"cpu-p-325.126594"
"cpu-p-325.126595"
"cpu-p-325.126596"
"cpu-p-325.126597"
"cpu-p-325.126598"
"cpu-p-325.126599"
"cpu-p-325.126600"
"cpu-p-325.126601"
"cpu-p-325.126602"
"cpu-p-325.126603"
"cpu-p-325.126604"
"cpu-p-326.119974"
"cpu-p-326.119975"
"cpu-p-326.119976"
"cpu-p-326.119977"
"cpu-p-326.119978"
"cpu-p-326.119979"
"cpu-p-326.119980"
"cpu-p-326.119981"
"cpu-p-326.119982"
"cpu-p-326.119983"
"cpu-p-326.119984"
"cpu-p-326.119985"
"cpu-p-326.119986"
"cpu-p-326.119987"
"cpu-p-326.119988"
"cpu-p-326.119989"
"cpu-p-326.119990"
"cpu-p-326.119991"
"cpu-p-326.119992"
"cpu-p-326.119993"
"cpu-p-326.119994"
"cpu-p-326.119995"
"cpu-p-326.119996"
"cpu-p-326.119997"
"cpu-p-326.119998"
"cpu-p-326.119999"
"cpu-p-326.120000"
"cpu-p-326.120001"
"cpu-p-326.120002"
"cpu-p-326.120003"
"cpu-p-326.120004"
"cpu-p-326.120005"
"cpu-p-326.120006"
"cpu-p-326.120007"
"cpu-p-326.120008"
"cpu-p-326.120009"
"cpu-p-326.120010"
"cpu-p-326.120011"
"cpu-p-326.120012"
"cpu-p-326.120013"
"cpu-p-326.120014"
"cpu-p-326.120015"
"cpu-p-326.120016"
"cpu-p-326.120017"
"cpu-p-326.120018"
"cpu-p-326.120019"
"cpu-p-326.120020"
"cpu-p-326.120022"
"cpu-p-326.120024"
"cpu-p-326.120025"
"cpu-p-326.120026"
"cpu-p-326.120027"
"cpu-p-326.120028"
"cpu-p-326.120029"
"cpu-p-326.120030"
"cpu-p-326.120031"
"cpu-p-327.145869"
"cpu-p-327.145870"
"cpu-p-327.145871"
"cpu-p-327.145872"
"cpu-p-327.145873"
"cpu-p-327.145874"
"cpu-p-327.145875"
"cpu-p-327.145876"
"cpu-p-327.145877"
"cpu-p-327.145878"
"cpu-p-327.145879"
"cpu-p-327.145880"
"cpu-p-327.145881"
"cpu-p-327.145882"
"cpu-p-327.145883"
"cpu-p-327.145884"
"cpu-p-327.145885"
"cpu-p-327.145886"
"cpu-p-327.145887"
"cpu-p-327.145888"
"cpu-p-327.145889"
"cpu-p-327.145890"
"cpu-p-327.145891"
"cpu-p-327.145892"
"cpu-p-327.145893"
"cpu-p-327.145894"
"cpu-p-327.145895"
"cpu-p-327.145896"
"cpu-p-327.145897"
"cpu-p-327.145898"
"cpu-p-327.145899"
"cpu-p-327.145900"
"cpu-p-327.145902"
"cpu-p-327.145903"
"cpu-p-327.145904"
"cpu-p-327.145905"
"cpu-p-327.145906"
"cpu-p-327.145907"
"cpu-p-327.145908"
"cpu-p-327.145909"
"cpu-p-327.145910"
"cpu-p-327.145911"
"cpu-p-327.145912"
"cpu-p-327.145913"
"cpu-p-327.145914"
"cpu-p-327.145916"
"cpu-p-327.145917"
"cpu-p-327.145918"
"cpu-p-327.145919"
"cpu-p-327.145920"
"cpu-p-327.145921"
"cpu-p-327.145922"
"cpu-p-327.145923"
"cpu-p-327.145924"
"cpu-p-327.145925"
"cpu-p-327.145926"
"cpu-p-328.135873"
"cpu-p-328.135874"
"cpu-p-328.135875"
"cpu-p-328.135876"
"cpu-p-328.135877"
"cpu-p-328.135878"
"cpu-p-328.135879"
"cpu-p-328.135880"
"cpu-p-328.135881"
"cpu-p-328.135882"
"cpu-p-328.135883"
"cpu-p-328.135884"
"cpu-p-328.135885"
"cpu-p-328.135886"
"cpu-p-328.135887"
"cpu-p-328.135888"
"cpu-p-328.135889"
"cpu-p-328.135890"
"cpu-p-328.135891"
"cpu-p-328.135892"
"cpu-p-328.135893"
"cpu-p-328.135894"
"cpu-p-328.135895"
"cpu-p-328.135896"
"cpu-p-328.135897"
"cpu-p-328.135898"
"cpu-p-328.135899"
"cpu-p-328.135900"
"cpu-p-328.135901"
"cpu-p-328.135902"
"cpu-p-328.135903"
"cpu-p-328.135904"
"cpu-p-328.135905"
"cpu-p-328.135906"
"cpu-p-328.135907"
"cpu-p-328.135908"
"cpu-p-328.135909"
"cpu-p-328.135910"
"cpu-p-328.135911"
"cpu-p-328.135912"
"cpu-p-328.135913"
"cpu-p-328.135914"
"cpu-p-328.135915"
"cpu-p-328.135916"
"cpu-p-328.135917"
"cpu-p-328.135918"
"cpu-p-328.135919"
"cpu-p-328.135920"
"cpu-p-328.135921"
"cpu-p-328.135922"
"cpu-p-328.135923"
"cpu-p-328.135925"
"cpu-p-328.135926"
"cpu-p-328.135927"
"cpu-p-328.135928"
"cpu-p-328.135929"
"cpu-p-329.134436"
"cpu-p-329.134437"
"cpu-p-329.134438"
"cpu-p-329.134439"
"cpu-p-329.134440"
"cpu-p-329.134441"
"cpu-p-329.134442"
"cpu-p-329.134443"
"cpu-p-329.134444"
"cpu-p-329.134445"
"cpu-p-329.134446"
"cpu-p-329.134447"
"cpu-p-329.134448"
"cpu-p-329.134449"
"cpu-p-329.134450"
"cpu-p-329.134451"
"cpu-p-329.134452"
"cpu-p-329.134453"
"cpu-p-329.134454"
"cpu-p-329.134455"
"cpu-p-329.134456"
"cpu-p-329.134457"
"cpu-p-329.134458"
"cpu-p-329.134459"
"cpu-p-329.134460"
"cpu-p-329.134462"
"cpu-p-329.134463"
"cpu-p-329.134464"
"cpu-p-329.134465"
"cpu-p-329.134466"
"cpu-p-329.134467"
"cpu-p-329.134468"
"cpu-p-329.134469"
"cpu-p-329.134470"
"cpu-p-329.134472"
"cpu-p-329.134473"
"cpu-p-329.134474"
"cpu-p-329.134475"
"cpu-p-329.134477"
"cpu-p-329.134478"
"cpu-p-329.134479"
"cpu-p-329.134480"
"cpu-p-329.134481"
"cpu-p-329.134482"
"cpu-p-329.134483"
"cpu-p-329.134484"
"cpu-p-329.134485"
"cpu-p-329.134486"
"cpu-p-329.134487"
"cpu-p-329.134488"
"cpu-p-329.134489"
"cpu-p-329.134490"
"cpu-p-329.134491"
"cpu-p-329.134492"
"cpu-p-329.134493"
"cpu-p-329.134494"
"cpu-p-330.131410"
"cpu-p-330.131411"
"cpu-p-330.131412"
"cpu-p-330.131413"
"cpu-p-330.131414"
"cpu-p-330.131415"
"cpu-p-330.131416"
"cpu-p-330.131417"
"cpu-p-330.131418"
"cpu-p-330.131419"
"cpu-p-330.131420"
"cpu-p-330.131421"
"cpu-p-330.131422"
"cpu-p-330.131423"
"cpu-p-330.131424"
"cpu-p-330.131425"
"cpu-p-330.131426"
"cpu-p-330.131427"
"cpu-p-330.131428"
"cpu-p-330.131429"
"cpu-p-330.131430"
"cpu-p-330.131431"
"cpu-p-330.131432"
"cpu-p-330.131433"
"cpu-p-330.131434"
"cpu-p-330.131435"
"cpu-p-330.131436"
"cpu-p-330.131437"
"cpu-p-330.131438"
"cpu-p-330.131439"
"cpu-p-330.131440"
"cpu-p-330.131441"
"cpu-p-330.131442"
"cpu-p-330.131443"
"cpu-p-330.131444"
"cpu-p-330.131445"
"cpu-p-330.131446"
"cpu-p-330.131447"
"cpu-p-330.131448"
"cpu-p-330.131449"
"cpu-p-330.131450"
"cpu-p-330.131451"
"cpu-p-330.131452"
"cpu-p-330.131455"
"cpu-p-330.131457"
"cpu-p-330.131458"
"cpu-p-330.131459"
"cpu-p-330.131460"
"cpu-p-330.131461"
"cpu-p-330.131462"
"cpu-p-330.131463"
"cpu-p-330.131464"
"cpu-p-330.131465"
"cpu-p-330.131466"
"cpu-p-330.131467"
"cpu-p-330.131468"
"cpu-p-331.126105"
"cpu-p-331.126106"
"cpu-p-331.126107"
"cpu-p-331.126108"
"cpu-p-331.126109"
"cpu-p-331.126110"
"cpu-p-331.126111"
"cpu-p-331.126112"
"cpu-p-331.126113"
"cpu-p-331.126114"
"cpu-p-331.126115"
"cpu-p-331.126116"
"cpu-p-331.126117"
"cpu-p-331.126118"
"cpu-p-331.126119"
"cpu-p-331.126120"
"cpu-p-331.126121"
"cpu-p-331.126122"
"cpu-p-331.126123"
"cpu-p-331.126124"
"cpu-p-331.126125"
"cpu-p-331.126126"
"cpu-p-331.126127"
"cpu-p-331.126128"
"cpu-p-331.126129"
"cpu-p-331.126130"
"cpu-p-331.126131"
"cpu-p-331.126132"
"cpu-p-331.126133"
"cpu-p-331.126134"
"cpu-p-331.126135"
"cpu-p-331.126137"
"cpu-p-331.126138"
"cpu-p-331.126139"
"cpu-p-331.126140"
"cpu-p-331.126141"
"cpu-p-331.126142"
"cpu-p-331.126143"
"cpu-p-331.126144"
"cpu-p-331.126145"
"cpu-p-331.126146"
"cpu-p-331.126147"
"cpu-p-331.126148"
"cpu-p-331.126149"
"cpu-p-331.126150"
"cpu-p-331.126151"
"cpu-p-331.126152"
"cpu-p-331.126153"
"cpu-p-331.126154"
"cpu-p-331.126155"
"cpu-p-331.126156"
"cpu-p-331.126157"
"cpu-p-331.126158"
"cpu-p-331.126159"
"cpu-p-331.126160"
"cpu-p-331.126161"
"cpu-p-332.127510"
"cpu-p-332.127511"
"cpu-p-332.127512"
"cpu-p-332.127513"
"cpu-p-332.127514"
"cpu-p-332.127515"
"cpu-p-332.127516"
"cpu-p-332.127517"
"cpu-p-332.127518"
"cpu-p-332.127519"
"cpu-p-332.127520"
"cpu-p-332.127521"
"cpu-p-332.127522"
"cpu-p-332.127523"
"cpu-p-332.127524"
"cpu-p-332.127525"
"cpu-p-332.127526"
"cpu-p-332.127527"
"cpu-p-332.127528"
"cpu-p-332.127529"
"cpu-p-332.127530"
"cpu-p-332.127531"
"cpu-p-332.127532"
"cpu-p-332.127534"
"cpu-p-332.127535"
"cpu-p-332.127536"
"cpu-p-332.127537"
"cpu-p-332.127538"
"cpu-p-332.127539"
"cpu-p-332.127540"
"cpu-p-332.127541"
"cpu-p-332.127542"
"cpu-p-332.127543"
"cpu-p-332.127544"
"cpu-p-332.127546"
"cpu-p-332.127547"
"cpu-p-332.127548"
"cpu-p-332.127549"
"cpu-p-332.127550"
"cpu-p-332.127551"
"cpu-p-332.127553"
"cpu-p-332.127555"
"cpu-p-332.127556"
"cpu-p-332.127557"
"cpu-p-332.127558"
"cpu-p-332.127559"
"cpu-p-332.127560"
"cpu-p-332.127561"
"cpu-p-332.127563"
"cpu-p-332.127564"
"cpu-p-332.127565"
"cpu-p-332.127566"
"cpu-p-332.127567"
"cpu-p-332.127568"
"cpu-p-332.127569"
"cpu-p-332.127570"
"cpu-p-333.137560"
"cpu-p-333.137561"
"cpu-p-333.137562"
"cpu-p-333.137563"
"cpu-p-333.137564"
"cpu-p-333.137565"
"cpu-p-333.137566"
"cpu-p-333.137567"
"cpu-p-333.137568"
"cpu-p-333.137569"
"cpu-p-333.137570"
"cpu-p-333.137571"
"cpu-p-333.137572"
"cpu-p-333.137573"
"cpu-p-333.137574"
"cpu-p-333.137575"
"cpu-p-333.137576"
"cpu-p-333.137577"
"cpu-p-333.137578"
"cpu-p-333.137579"
"cpu-p-333.137580"
"cpu-p-333.137581"
"cpu-p-333.137582"
"cpu-p-333.137583"
"cpu-p-333.137584"
"cpu-p-333.137585"
"cpu-p-333.137586"
"cpu-p-333.137587"
"cpu-p-333.137588"
"cpu-p-333.137589"
"cpu-p-333.137590"
"cpu-p-333.137591"
"cpu-p-333.137592"
"cpu-p-333.137593"
"cpu-p-333.137594"
"cpu-p-333.137595"
"cpu-p-333.137596"
"cpu-p-333.137597"
"cpu-p-333.137598"
"cpu-p-333.137599"
"cpu-p-333.137600"
"cpu-p-333.137601"
"cpu-p-333.137602"
"cpu-p-333.137603"
"cpu-p-333.137604"
"cpu-p-333.137605"
"cpu-p-333.137606"
"cpu-p-333.137607"
"cpu-p-333.137608"
"cpu-p-333.137609"
"cpu-p-333.137610"
"cpu-p-333.137611"
"cpu-p-333.137612"
"cpu-p-333.137613"
"cpu-p-333.137614"
"cpu-p-333.137615"
"cpu-p-334.131739"
"cpu-p-334.131740"
"cpu-p-334.131741"
"cpu-p-334.131742"
"cpu-p-334.131743"
"cpu-p-334.131744"
"cpu-p-334.131745"
"cpu-p-334.131746"
"cpu-p-334.131747"
"cpu-p-334.131748"
"cpu-p-334.131749"
"cpu-p-334.131750"
"cpu-p-334.131751"
"cpu-p-334.131752"
"cpu-p-334.131753"
"cpu-p-334.131754"
"cpu-p-334.131755"
"cpu-p-334.131756"
"cpu-p-334.131757"
"cpu-p-334.131758"
"cpu-p-334.131759"
"cpu-p-334.131760"
"cpu-p-334.131761"
"cpu-p-334.131762"
"cpu-p-334.131763"
"cpu-p-334.131764"
"cpu-p-334.131765"
"cpu-p-334.131766"
"cpu-p-334.131767"
"cpu-p-334.131768"
"cpu-p-334.131769"
"cpu-p-334.131770"
"cpu-p-334.131771"
"cpu-p-334.131772"
"cpu-p-334.131773"
"cpu-p-334.131774"
"cpu-p-334.131775"
"cpu-p-334.131776"
"cpu-p-334.131777"
"cpu-p-334.131778"
"cpu-p-334.131779"
"cpu-p-334.131780"
"cpu-p-334.131781"
"cpu-p-334.131782"
"cpu-p-334.131783"
"cpu-p-334.131784"
"cpu-p-334.131785"
"cpu-p-334.131786"
"cpu-p-334.131787"
"cpu-p-334.131788"
"cpu-p-334.131789"
"cpu-p-334.131790"
"cpu-p-334.131791"
"cpu-p-334.131792"
"cpu-p-334.131793"
"cpu-p-334.131794"
"cpu-p-335.137556"
"cpu-p-335.137557"
"cpu-p-335.137558"
"cpu-p-335.137559"
"cpu-p-335.137560"
"cpu-p-335.137561"
"cpu-p-335.137562"
"cpu-p-335.137563"
"cpu-p-335.137564"
"cpu-p-335.137565"
"cpu-p-335.137566"
"cpu-p-335.137567"
"cpu-p-335.137568"
"cpu-p-335.137569"
"cpu-p-335.137570"
"cpu-p-335.137571"
"cpu-p-335.137572"
"cpu-p-335.137573"
"cpu-p-335.137574"
"cpu-p-335.137575"
"cpu-p-335.137576"
"cpu-p-335.137577"
"cpu-p-335.137578"
"cpu-p-335.137579"
"cpu-p-335.137580"
"cpu-p-335.137581"
"cpu-p-335.137582"
"cpu-p-335.137583"
"cpu-p-335.137584"
"cpu-p-335.137585"
"cpu-p-335.137586"
"cpu-p-335.137587"
"cpu-p-335.137588"
"cpu-p-335.137589"
"cpu-p-335.137590"
"cpu-p-335.137591"
"cpu-p-335.137592"
"cpu-p-335.137593"
"cpu-p-335.137594"
"cpu-p-335.137595"
"cpu-p-335.137596"
"cpu-p-335.137597"
"cpu-p-335.137598"
"cpu-p-335.137600"
"cpu-p-335.137602"
"cpu-p-335.137606"
"cpu-p-335.137607"
"cpu-p-335.137608"
"cpu-p-335.137609"
"cpu-p-335.137610"
"cpu-p-335.137611"
"cpu-p-335.137615"
"cpu-p-335.137618"
"cpu-p-335.137619"
"cpu-p-335.137620"
"cpu-p-335.137621"
"cpu-p-336.126353"
"cpu-p-336.126354"
"cpu-p-336.126355"
"cpu-p-336.126356"
"cpu-p-336.126357"
"cpu-p-336.126358"
"cpu-p-336.126359"
"cpu-p-336.126360"
"cpu-p-336.126361"
"cpu-p-336.126362"
"cpu-p-336.126363"
"cpu-p-336.126364"
"cpu-p-336.126365"
"cpu-p-336.126366"
"cpu-p-336.126367"
"cpu-p-336.126368"
"cpu-p-336.126369"
"cpu-p-336.126370"
"cpu-p-336.126372"
"cpu-p-336.126373"
"cpu-p-336.126374"
"cpu-p-336.126375"
"cpu-p-336.126376"
"cpu-p-336.126377"
"cpu-p-336.126378"
"cpu-p-336.126379"
"cpu-p-336.126380"
"cpu-p-336.126381"
"cpu-p-336.126382"
"cpu-p-336.126383"
"cpu-p-336.126384"
"cpu-p-336.126385"
"cpu-p-336.126386"
"cpu-p-336.126387"
"cpu-p-336.126388"
"cpu-p-336.126389"
"cpu-p-336.126390"
"cpu-p-336.126391"
"cpu-p-336.126392"
"cpu-p-336.126393"
"cpu-p-336.126394"
"cpu-p-336.126395"
"cpu-p-336.126396"
"cpu-p-336.126397"
"cpu-p-336.126398"
"cpu-p-336.126399"
"cpu-p-336.126400"
"cpu-p-336.126401"
"cpu-p-336.126402"
"cpu-p-336.126403"
"cpu-p-336.126404"
"cpu-p-336.126405"
"cpu-p-336.126406"
"cpu-p-336.126407"
"cpu-p-336.126408"
"cpu-p-336.126409"
)

Pstream initialized with:
    floatTransfer      : 0
    nProcsSimpleSum    : 0
    commsType          : nonBlocking
    polling iterations : 0
sigFpe : Enabling floating point exception trapping (FOAM_SIGFPE).
fileModificationChecking : Monitoring run-time modified files using timeStampMaster (fileModificationSkew 10)
allowSystemOperations : Allowing user-supplied system call operations

// * * * * * * * * * * * * * * * * * * * * * * * * * * * * * * * * * * * * * //
Create time

Create mesh for time = 0

Read mesh in = 6.53 s

Overall mesh bounding box  : (-5 -4 0) (15 4 8)
Relative tolerance         : 1e-06
Absolute matching distance : 2.29783e-05

Reading refinement surfaces.
Read refinement surfaces in = 7.46 s

Reading refinement shells.
Refinement level 4 for all cells inside refinementBox
Read refinement shells in = 0 s

Setting refinement level of surface to be consistent with shells.
Checked shell refinement in = 1.44 s

Reading features.
Read edgeMesh motorBike.eMesh
    points      : 20665
    edges       : 20867
    boundingBox : (-0.241214 -0.337971 -4.232e-05) (1.75115 0.329368 1.21979)

Refinement level according to distance to "motorBike.eMesh" (20665 points, 20867 edges).
    level 6 for all cells within 0 metre.
Read features in = 0.11 s


Determining initial surface intersections
-----------------------------------------

Edge intersection testing:
    Number of edges             : 32256
    Number of edges to retest   : 32256
    Number of intersected edges : 26
Calculated surface intersections in = 0.32 s

Initial mesh : cells:10240  faces:32256  points:11849
Cells per refinement level:
    0	10240

Adding patches for surface regions
----------------------------------

Patch Type                Region                        
----- ----                ------                        
motorBike:

5     wall                motorBike_frt-fairing:001%1   
6     wall                motorBike_windshield:002%2    
7     wall                motorBike_rr-wh-rim:005%5     
8     wall                motorBike_rr-wh-rim:010%10    
9     wall                motorBike_fr-wh-rim:011%11    
10    wall                motorBike_fr-wh-brake-disk:012%12
11    wall                motorBike_frame:016-shadow%13 
12    wall                motorBike_rear-susp:014%14    
13    wall                motorBike_rear-susp:014-shadow%15
14    wall                motorBike_frame:016%16        
15    wall                motorBike_rr-wh-rim:005-shadow%17
16    wall                motorBike_rr-wh-chain-hub:022%22
17    wall                motorBike_rearseat%24         
18    wall                motorBike_frt-fairing%25      
19    wall                motorBike_windshield%26       
20    wall                motorBike_headlights%27       
21    wall                motorBike_driversseat%28      
22    wall                motorBike_rear-body%29        
23    wall                motorBike_fuel-tank%30        
24    wall                motorBike_exhaust%31          
25    wall                motorBike_rr-wh-rim%32        
26    wall                motorBike_fr-mud-guard%33     
27    wall                motorBike_fr-wh-rim%34        
28    wall                motorBike_fr-wh-brake-disk%35 
29    wall                motorBike_fr-brake-caliper%36 
30    wall                motorBike_fr-wh-tyre%37       
31    wall                motorBike_hbars%38            
32    wall                motorBike_fr-forks%39         
33    wall                motorBike_chain%40            
34    wall                motorBike_rr-wh-tyre%41       
35    wall                motorBike_square-dial%42      
36    wall                motorBike_round-dial%43       
37    wall                motorBike_dial-holder%44      
38    wall                motorBike_rear-susp%45        
39    wall                motorBike_rear-brake-lights%46
40    wall                motorBike_rear-light-bracket%47
41    wall                motorBike_frame%48            
42    wall                motorBike_rear-mud-guard%49   
43    wall                motorBike_rear-susp-spring-damp%50
44    wall                motorBike_fairing-inner-plate%51
45    wall                motorBike_clutch-housing%52   
46    wall                motorBike_radiator%53         
47    wall                motorBike_water-pipe%54       
48    wall                motorBike_water-pump%55       
49    wall                motorBike_engine%56           
50    wall                motorBike_rear-shock-link%57  
51    wall                motorBike_rear-brake-fluid-pot-bracket%58
52    wall                motorBike_rear-brake-fluid-pot%59
53    wall                motorBike_footpeg%60          
54    wall                motorBike_rr-wh-chain-hub%61  
55    wall                motorBike_rear-brake-caliper%62
56    wall                motorBike_rider-helmet%65     
57    wall                motorBike_rider-visor%66      
58    wall                motorBike_rider-boots%67      
59    wall                motorBike_rider-gloves%68     
60    wall                motorBike_rider-body%69       
61    wall                motorBike_frame:0%70          
62    wall                motorBike_frt-fairing:001-shadow%74
63    wall                motorBike_windshield-shadow%75
64    wall                motorBike_fr-mud-guard-shadow%81
65    wall                motorBike_fr-wh-brake-disk-shadow%83
66    wall                motorBike_rear-mud-guard-shadow%84
67    wall                motorBike_rear-susp-spring-damp-shadow%85
68    wall                motorBike_radiator-shadow%86  
[1]  Foam::decompositionMethod::New 
[1] {
[1]     numberOfSubdomains 1792;
[1]     method          scotch;
[1]     simpleCoeffs
[1]     {
[1]         n               ( 4 1 1 );
[1]         delta           0.001;
[1]     }
[1]     hierarchicalCoeffs
[1]     {
[1]         n               ( 3 2 1 );
[1]         delta           0.001;
[1]         order           xyz;
[1]     }
[1]     manualCoeffs
[1]     {
[1]         dataFile        "cellDecomposition";
[1]     }
[1] }
[1] 
[1] Selecting decompositionMethod scotch
[2]  Foam::decompositionMethod::New 
[2] {
[2]     numberOfSubdomains 1792;
[2]     method          scotch;
[2]     simpleCoeffs
[2]     {
[2]         n               ( 4 1 1 );
[2]         delta           0.001;
[2]     }
[2]     hierarchicalCoeffs
[2]     {
[2]         n               ( 3 2 1 );
[2]         delta           0.001;
[2]         order           xyz;
[2]     }
[2]     manualCoeffs
[2]     {
[2]         dataFile        "cellDecomposition";
[2]     }
[2] }
[2] 
[2] Selecting decompositionMethod scotch
[3]  Foam::decompositionMethod::New 
[3] {
[3]     numberOfSubdomains 1792;
[3]     method          scotch;
[3]     simpleCoeffs
[3]     {
[3]         n               ( 4 1 1 );
[3]         delta           0.001;
[3]     }
[3]     hierarchicalCoeffs
[3]     {
[3]         n               ( 3 2 1 );
[3]         delta           0.001;
[3]         order           xyz;
[3]     }
[3]     manualCoeffs
[3]     {
[3]         dataFile        "cellDecomposition";
[3]     }
[3] }
[3] 
[3] Selecting decompositionMethod scotch
[4]  Foam::decompositionMethod::New 
[4] {
[4]     numberOfSubdomains 1792;
[4]     method          scotch;
[4]     simpleCoeffs
[4]     {
[4]         n               ( 4 1 1 );
[4]         delta           0.001;
[4]     }
[4]     hierarchicalCoeffs
[4]     {
[4]         n               ( 3 2 1 );
[4]         delta           0.001;
[4]         order           xyz;
[4]     }
[4]     manualCoeffs
[4]     {
[4]         dataFile        "cellDecomposition";
[4]     }
[4] }
[4] 
[4] Selecting decompositionMethod scotch
[5]  Foam::decompositionMethod::New 
[5] {
[5]     numberOfSubdomains 1792;
[5]     method          scotch;
[5]     simpleCoeffs
[5]     {
[5]         n               ( 4 1 1 );
[5]         delta           0.001;
[5]     }
[5]     hierarchicalCoeffs
[5]     {
[5]         n               ( 3 2 1 );
[5]         delta           0.001;
[5]         order           xyz;
[5]     }
[5]     manualCoeffs
[5]     {
[5]         dataFile        "cellDecomposition";
[5]     }
[5] }
[5] 
[5] Selecting decompositionMethod scotch
[6]  Foam::decompositionMethod::New 
[6] {
[6]     numberOfSubdomains 1792;
[6]     method          scotch;
[6]     simpleCoeffs
[6]     {
[6]         n               ( 4 1 1 );
[6]         delta           0.001;
[6]     }
[6]     hierarchicalCoeffs
[6]     {
[6]         n               ( 3 2 1 );
[6]         delta           0.001;
[6]         order           xyz;
[6]     }
[6]     manualCoeffs
[6]     {
[6]         dataFile        "cellDecomposition";
[6]     }
[6] }
[6] 
[6] Selecting decompositionMethod scotch
[7]  Foam::decompositionMethod::New 
[7] {
[7]     numberOfSubdomains 1792;
[7]     method          scotch;
[7]     simpleCoeffs
[7]     {
[7]         n               ( 4 1 1 );
[7]         delta           0.001;
[7]     }
[7]     hierarchicalCoeffs
[7]     {
[7]         n               ( 3 2 1 );
[7]         delta           0.001;
[7]         order           xyz;
[7]     }
[7]     manualCoeffs
[7]     {
[7]         dataFile        "cellDecomposition";
[7]     }
[7] }
[7] 
[7] Selecting decompositionMethod scotch
[8]  Foam::decompositionMethod::New 
[8] {
[8]     numberOfSubdomains 1792;
[8]     method          scotch;
[8]     simpleCoeffs
[8]     {
[8]         n               ( 4 1 1 );
[8]         delta           0.001;
[8]     }
[8]     hierarchicalCoeffs
[8]     {
[8]         n               ( 3 2 1 );
[8]         delta           0.001;
[8]         order           xyz;
[8]     }
[8]     manualCoeffs
[8]     {
[8]         dataFile        "cellDecomposition";
[8]     }
[8] }
[8] 
[8] Selecting decompositionMethod scotch
[9]  Foam::decompositionMethod::New 
[9] {
[9]     numberOfSubdomains 1792;
[9]     method          scotch;
[9]     simpleCoeffs
[9]     {
[9]         n               ( 4 1 1 );
[9]         delta           0.001;
[9]     }
[9]     hierarchicalCoeffs
[9]     {
[9]         n               ( 3 2 1 );
[9]         delta           0.001;
[9]         order           xyz;
[9]     }
[9]     manualCoeffs
[9]     {
[9]         dataFile        "cellDecomposition";
[9]     }
[9] }
[9] 
[9] Selecting decompositionMethod scotch
[10]  Foam::decompositionMethod::New 
[10] {
[10]     numberOfSubdomains 1792;
[10]     method          scotch;
[10]     simpleCoeffs
[10]     {
[10]         n               ( 4 1 1 );
[10]         delta           0.001;
[10]     }
[10]     hierarchicalCoeffs
[10]     {
[10]         n               ( 3 2 1 );
[10]         delta           0.001;
[10]         order           xyz;
[10]     }
[10]     manualCoeffs
[10]     {
[10]         dataFile        "cellDecomposition";
[10]     }
[10] }
[10] 
[10] Selecting decompositionMethod scotch
[11]  Foam::decompositionMethod::New 
[11] {
[11]     numberOfSubdomains 1792;
[11]     method          scotch;
[11]     simpleCoeffs
[11]     {
[11]         n               ( 4 1 1 );
[11]         delta           0.001;
[11]     }
[11]     hierarchicalCoeffs
[11]     {
[11]         n               ( 3 2 1 );
[11]         delta           0.001;
[11]         order           xyz;
[11]     }
[11]     manualCoeffs
[11]     {
[11]         dataFile        "cellDecomposition";
[11]     }
[11] }
[11] 
[11] Selecting decompositionMethod scotch
[12]  Foam::decompositionMethod::New 
[12] {
[12]     numberOfSubdomains 1792;
[12]     method          scotch;
[12]     simpleCoeffs
[12]     {
[12]         n               ( 4 1 1 );
[12]         delta           0.001;
[12]     }
[12]     hierarchicalCoeffs
[12]     {
[12]         n               ( 3 2 1 );
[12]         delta           0.001;
[12]         order           xyz;
[12]     }
[12]     manualCoeffs
[12]     {
[12]         dataFile        "cellDecomposition";
[12]     }
[12] }
[12] 
[12] Selecting decompositionMethod scotch
[13]  Foam::decompositionMethod::New 
[13] {
[13]     numberOfSubdomains 1792;
[13]     method          scotch;
[13]     simpleCoeffs
[13]     {
[13]         n               ( 4 1 1 );
[13]         delta           0.001;
[13]     }
[13]     hierarchicalCoeffs
[13]     {
[13]         n               ( 3 2 1 );
[13]         delta           0.001;
[13]         order           xyz;
[13]     }
[13]     manualCoeffs
[13]     {
[13]         dataFile        "cellDecomposition";
[13]     }
[13] }
[13] 
[13] Selecting decompositionMethod scotch
[14]  Foam::decompositionMethod::New 
[14] {
[14]     numberOfSubdomains 1792;
[14]     method          scotch;
[14]     simpleCoeffs
[14]     {
[14]         n               ( 4 1 1 );
[14]         delta           0.001;
[14]     }
[14]     hierarchicalCoeffs
[14]     {
[14]         n               ( 3 2 1 );
[14]         delta           0.001;
[14]         order           xyz;
[14]     }
[14]     manualCoeffs
[14]     {
[14]         dataFile        "cellDecomposition";
[14]     }
[14] }
[14] 
[14] Selecting decompositionMethod scotch
[15]  Foam::decompositionMethod::New 
[15] {
[15]     numberOfSubdomains 1792;
[15]     method          scotch;
[15]     simpleCoeffs
[15]     {
[15]         n               ( 4 1 1 );
[15]         delta           0.001;
[15]     }
[15]     hierarchicalCoeffs
[15]     {
[15]         n               ( 3 2 1 );
[15]         delta           0.001;
[15]         order           xyz;
[15]     }
[15]     manualCoeffs
[15]     {
[15]         dataFile        "cellDecomposition";
[15]     }
[15] }
[15] 
[15] Selecting decompositionMethod scotch
[16]  Foam::decompositionMethod::New 
[16] {
[16]     numberOfSubdomains 1792;
[16]     method          scotch;
[16]     simpleCoeffs
[16]     {
[16]         n               ( 4 1 1 );
[16]         delta           0.001;
[16]     }
[16]     hierarchicalCoeffs
[16]     {
[16]         n               ( 3 2 1 );
[16]         delta           0.001;
[16]         order           xyz;
[16]     }
[16]     manualCoeffs
[16]     {
[16]         dataFile        "cellDecomposition";
[16]     }
[16] }
[16] 
[16] Selecting decompositionMethod scotch
[17]  Foam::decompositionMethod::New 
[17] {
[17]     numberOfSubdomains 1792;
[17]     method          scotch;
[17]     simpleCoeffs
[17]     {
[17]         n               ( 4 1 1 );
[17]         delta           0.001;
[17]     }
[17]     hierarchicalCoeffs
[17]     {
[17]         n               ( 3 2 1 );
[17]         delta           0.001;
[17]         order           xyz;
[17]     }
[17]     manualCoeffs
[17]     {
[17]         dataFile        "cellDecomposition";
[17]     }
[17] }
[17] 
[17] Selecting decompositionMethod scotch
[18]  Foam::decompositionMethod::New 
[18] {
[18]     numberOfSubdomains 1792;
[18]     method          scotch;
[18]     simpleCoeffs
[18]     {
[18]         n               ( 4 1 1 );
[18]         delta           0.001;
[18]     }
[18]     hierarchicalCoeffs
[18]     {
[18]         n               ( 3 2 1 );
[18]         delta           0.001;
[18]         order           xyz;
[18]     }
[18]     manualCoeffs
[18]     {
[18]         dataFile        "cellDecomposition";
[18]     }
[18] }
[18] 
[18] Selecting decompositionMethod scotch
[19]  Foam::decompositionMethod::New 
[19] {
[19]     numberOfSubdomains 1792;
[19]     method          scotch;
[19]     simpleCoeffs
[19]     {
[19]         n               ( 4 1 1 );
[19]         delta           0.001;
[19]     }
[19]     hierarchicalCoeffs
[19]     {
[19]         n               ( 3 2 1 );
[19]         delta           0.001;
[19]         order           xyz;
[19]     }
[19]     manualCoeffs
[19]     {
[19]         dataFile        "cellDecomposition";
[19]     }
[19] }
[19] 
[19] Selecting decompositionMethod scotch
[20]  Foam::decompositionMethod::New 
[20] {
[20]     numberOfSubdomains 1792;
[20]     method          scotch;
[20]     simpleCoeffs
[20]     {
[20]         n               ( 4 1 1 );
[20]         delta           0.001;
[20]     }
[20]     hierarchicalCoeffs
[20]     {
[20]         n               ( 3 2 1 );
[20]         delta           0.001;
[20]         order           xyz;
[20]     }
[20]     manualCoeffs
[20]     {
[20]         dataFile        "cellDecomposition";
[20]     }
[20] }
[20] 
[20] Selecting decompositionMethod scotch
[21]  Foam::decompositionMethod::New 
[21] {
[21]     numberOfSubdomains 1792;
[21]     method          scotch;
[21]     simpleCoeffs
[21]     {
[21]         n               ( 4 1 1 );
[21]         delta           0.001;
[21]     }
[21]     hierarchicalCoeffs
[21]     {
[21]         n               ( 3 2 1 );
[21]         delta           0.001;
[21]         order           xyz;
[21]     }
[21]     manualCoeffs
[21]     {
[21]         dataFile        "cellDecomposition";
[21]     }
[21] }
[21] 
[21] Selecting decompositionMethod scotch
[22]  Foam::decompositionMethod::New 
[22] {
[22]     numberOfSubdomains 1792;
[22]     method          scotch;
[22]     simpleCoeffs
[22]     {
[22]         n               ( 4 1 1 );
[22]         delta           0.001;
[22]     }
[22]     hierarchicalCoeffs
[22]     {
[22]         n               ( 3 2 1 );
[22]         delta           0.001;
[22]         order           xyz;
[22]     }
[22]     manualCoeffs
[22]     {
[22]         dataFile        "cellDecomposition";
[22]     }
[22] }
[22] 
[22] Selecting decompositionMethod scotch
[23]  Foam::decompositionMethod::New 
[23] {
[23]     numberOfSubdomains 1792;
[23]     method          scotch;
[23]     simpleCoeffs
[23]     {
[23]         n               ( 4 1 1 );
[23]         delta           0.001;
[23]     }
[23]     hierarchicalCoeffs
[23]     {
[23]         n               ( 3 2 1 );
[23]         delta           0.001;
[23]         order           xyz;
[23]     }
[23]     manualCoeffs
[23]     {
[23]         dataFile        "cellDecomposition";
[23]     }
[23] }
[23] 
[23] Selecting decompositionMethod scotch
[24]  Foam::decompositionMethod::New 
[24] {
[24]     numberOfSubdomains 1792;
[24]     method          scotch;
[24]     simpleCoeffs
[24]     {
[24]         n               ( 4 1 1 );
[24]         delta           0.001;
[24]     }
[24]     hierarchicalCoeffs
[24]     {
[24]         n               ( 3 2 1 );
[24]         delta           0.001;
[24]         order           xyz;
[24]     }
[24]     manualCoeffs
[24]     {
[24]         dataFile        "cellDecomposition";
[24]     }
[24] }
[24] 
[24] Selecting decompositionMethod scotch
[25]  Foam::decompositionMethod::New 
[25] {
[25]     numberOfSubdomains 1792;
[25]     method          scotch;
[25]     simpleCoeffs
[25]     {
[25]         n               ( 4 1 1 );
[25]         delta           0.001;
[25]     }
[25]     hierarchicalCoeffs
[25]     {
[25]         n               ( 3 2 1 );
[25]         delta           0.001;
[25]         order           xyz;
[25]     }
[25]     manualCoeffs
[25]     {
[25]         dataFile        "cellDecomposition";
[25]     }
[25] }
[25] 
[25] Selecting decompositionMethod scotch
[26]  Foam::decompositionMethod::New 
[26] {
[26]     numberOfSubdomains 1792;
[26]     method          scotch;
[26]     simpleCoeffs
[26]     {
[26]         n               ( 4 1 1 );
[26]         delta           0.001;
[26]     }
[26]     hierarchicalCoeffs
[26]     {
[26]         n               ( 3 2 1 );
[26]         delta           0.001;
[26]         order           xyz;
[26]     }
[26]     manualCoeffs
[26]     {
[26]         dataFile        "cellDecomposition";
[26]     }
[26] }
[26] 
[26] Selecting decompositionMethod scotch
[27]  Foam::decompositionMethod::New 
[27] {
[27]     numberOfSubdomains 1792;
[27]     method          scotch;
[27]     simpleCoeffs
[27]     {
[27]         n               ( 4 1 1 );
[27]         delta           0.001;
[27]     }
[27]     hierarchicalCoeffs
[27]     {
[27]         n               ( 3 2 1 );
[27]         delta           0.001;
[27]         order           xyz;
[27]     }
[27]     manualCoeffs
[27]     {
[27]         dataFile        "cellDecomposition";
[27]     }
[27] }
[27] 
[27] Selecting decompositionMethod scotch
[28]  Foam::decompositionMethod::New 
[28] {
[28]     numberOfSubdomains 1792;
[28]     method          scotch;
[28]     simpleCoeffs
[28]     {
[28]         n               ( 4 1 1 );
[28]         delta           0.001;
[28]     }
[28]     hierarchicalCoeffs
[28]     {
[28]         n               ( 3 2 1 );
[28]         delta           0.001;
[28]         order           xyz;
[28]     }
[28]     manualCoeffs
[28]     {
[28]         dataFile        "cellDecomposition";
[28]     }
[28] }
[28] 
[28] Selecting decompositionMethod scotch
[29]  Foam::decompositionMethod::New 
[29] {
[29]     numberOfSubdomains 1792;
[29]     method          scotch;
[29]     simpleCoeffs
[29]     {
[29]         n               ( 4 1 1 );
[29]         delta           0.001;
[29]     }
[29]     hierarchicalCoeffs
[29]     {
[29]         n               ( 3 2 1 );
[29]         delta           0.001;
[29]         order           xyz;
[29]     }
[29]     manualCoeffs
[29]     {
[29]         dataFile        "cellDecomposition";
[29]     }
[29] }
[29] 
[29] Selecting decompositionMethod scotch
[30]  Foam::decompositionMethod::New 
[30] {
[30]     numberOfSubdomains 1792;
[30]     method          scotch;
[30]     simpleCoeffs
[30]     {
[30]         n               ( 4 1 1 );
[30]         delta           0.001;
[30]     }
[30]     hierarchicalCoeffs
[30]     {
[30]         n               ( 3 2 1 );
[30]         delta           0.001;
[30]         order           xyz;
[30]     }
[30]     manualCoeffs
[30]     {
[30]         dataFile        "cellDecomposition";
[30]     }
[30] }
[30] 
[30] Selecting decompositionMethod scotch
[31]  Foam::decompositionMethod::New 
[31] {
[31]     numberOfSubdomains 1792;
[31]     method          scotch;
[31]     simpleCoeffs
[31]     {
[31]         n               ( 4 1 1 );
[31]         delta           0.001;
[31]     }
[31]     hierarchicalCoeffs
[31]     {
[31]         n               ( 3 2 1 );
[31]         delta           0.001;
[31]         order           xyz;
[31]     }
[31]     manualCoeffs
[31]     {
[31]         dataFile        "cellDecomposition";
[31]     }
[31] }
[31] 
[31] Selecting decompositionMethod scotch
[32]  Foam::decompositionMethod::New 
[32] {
[32]     numberOfSubdomains 1792;
[32]     method          scotch;
[32]     simpleCoeffs
[32]     {
[32]         n               ( 4 1 1 );
[32]         delta           0.001;
[32]     }
[32]     hierarchicalCoeffs
[32]     {
[32]         n               ( 3 2 1 );
[32]         delta           0.001;
[32]         order           xyz;
[32]     }
[32]     manualCoeffs
[32]     {
[32]         dataFile        "cellDecomposition";
[32]     }
[32] }
[32] 
[32] Selecting decompositionMethod scotch
[33]  Foam::decompositionMethod::New 
[33] {
[33]     numberOfSubdomains 1792;
[33]     method          scotch;
[33]     simpleCoeffs
[33]     {
[33]         n               ( 4 1 1 );
[33]         delta           0.001;
[33]     }
[33]     hierarchicalCoeffs
[33]     {
[33]         n               ( 3 2 1 );
[33]         delta           0.001;
[33]         order           xyz;
[33]     }
[33]     manualCoeffs
[33]     {
[33]         dataFile        "cellDecomposition";
[33]     }
[33] }
[33] 
[33] Selecting decompositionMethod scotch
[34]  Foam::decompositionMethod::New 
[34] {
[34]     numberOfSubdomains 1792;
[34]     method          scotch;
[34]     simpleCoeffs
[34]     {
[34]         n               ( 4 1 1 );
[34]         delta           0.001;
[34]     }
[34]     hierarchicalCoeffs
[34]     {
[34]         n               ( 3 2 1 );
[34]         delta           0.001;
[34]         order           xyz;
[34]     }
[34]     manualCoeffs
[34]     {
[34]         dataFile        "cellDecomposition";
[34]     }
[34] }
[34] 
[34] Selecting decompositionMethod scotch
[35]  Foam::decompositionMethod::New 
[35] {
[35]     numberOfSubdomains 1792;
[35]     method          scotch;
[35]     simpleCoeffs
[35]     {
[35]         n               ( 4 1 1 );
[35]         delta           0.001;
[35]     }
[35]     hierarchicalCoeffs
[35]     {
[35]         n               ( 3 2 1 );
[35]         delta           0.001;
[35]         order           xyz;
[35]     }
[35]     manualCoeffs
[35]     {
[35]         dataFile        "cellDecomposition";
[35]     }
[35] }
[35] 
[35] Selecting decompositionMethod scotch
[36]  Foam::decompositionMethod::New 
[36] {
[36]     numberOfSubdomains 1792;
[36]     method          scotch;
[36]     simpleCoeffs
[36]     {
[36]         n               ( 4 1 1 );
[36]         delta           0.001;
[36]     }
[36]     hierarchicalCoeffs
[36]     {
[36]         n               ( 3 2 1 );
[36]         delta           0.001;
[36]         order           xyz;
[36]     }
[36]     manualCoeffs
[36]     {
[36]         dataFile        "cellDecomposition";
[36]     }
[36] }
[36] 
[36] Selecting decompositionMethod scotch
[37]  Foam::decompositionMethod::New 
[37] {
[37]     numberOfSubdomains 1792;
[37]     method          scotch;
[37]     simpleCoeffs
[37]     {
[37]         n               ( 4 1 1 );
[37]         delta           0.001;
[37]     }
[37]     hierarchicalCoeffs
[37]     {
[37]         n               ( 3 2 1 );
[37]         delta           0.001;
[37]         order           xyz;
[37]     }
[37]     manualCoeffs
[37]     {
[37]         dataFile        "cellDecomposition";
[37]     }
[37] }
[37] 
[37] Selecting decompositionMethod scotch
[38]  Foam::decompositionMethod::New 
[38] {
[38]     numberOfSubdomains 1792;
[38]     method          scotch;
[38]     simpleCoeffs
[38]     {
[38]         n               ( 4 1 1 );
[38]         delta           0.001;
[38]     }
[38]     hierarchicalCoeffs
[38]     {
[38]         n               ( 3 2 1 );
[38]         delta           0.001;
[38]         order           xyz;
[38]     }
[38]     manualCoeffs
[38]     {
[38]         dataFile        "cellDecomposition";
[38]     }
[38] }
[38] 
[38] Selecting decompositionMethod scotch
[39]  Foam::decompositionMethod::New 
[39] {
[39]     numberOfSubdomains 1792;
[39]     method          scotch;
[39]     simpleCoeffs
[39]     {
[39]         n               ( 4 1 1 );
[39]         delta           0.001;
[39]     }
[39]     hierarchicalCoeffs
[39]     {
[39]         n               ( 3 2 1 );
[39]         delta           0.001;
[39]         order           xyz;
[39]     }
[39]     manualCoeffs
[39]     {
[39]         dataFile        "cellDecomposition";
[39]     }
[39] }
[39] 
[39] Selecting decompositionMethod scotch
[40]  Foam::decompositionMethod::New 
[40] {
[40]     numberOfSubdomains 1792;
[40]     method          scotch;
[40]     simpleCoeffs
[40]     {
[40]         n               ( 4 1 1 );
[40]         delta           0.001;
[40]     }
[40]     hierarchicalCoeffs
[40]     {
[40]         n               ( 3 2 1 );
[40]         delta           0.001;
[40]         order           xyz;
[40]     }
[40]     manualCoeffs
[40]     {
[40]         dataFile        "cellDecomposition";
[40]     }
[40] }
[40] 
[40] Selecting decompositionMethod scotch
[41]  Foam::decompositionMethod::New 
[41] {
[41]     numberOfSubdomains 1792;
[41]     method          scotch;
[41]     simpleCoeffs
[41]     {
[41]         n               ( 4 1 1 );
[41]         delta           0.001;
[41]     }
[41]     hierarchicalCoeffs
[41]     {
[41]         n               ( 3 2 1 );
[41]         delta           0.001;
[41]         order           xyz;
[41]     }
[41]     manualCoeffs
[41]     {
[41]         dataFile        "cellDecomposition";
[41]     }
[41] }
[41] 
[41] Selecting decompositionMethod scotch
[42]  Foam::decompositionMethod::New 
[42] {
[42]     numberOfSubdomains 1792;
[42]     method          scotch;
[42]     simpleCoeffs
[42]     {
[42]         n               ( 4 1 1 );
[42]         delta           0.001;
[42]     }
[42]     hierarchicalCoeffs
[42]     {
[42]         n               ( 3 2 1 );
[42]         delta           0.001;
[42]         order           xyz;
[42]     }
[42]     manualCoeffs
[42]     {
[42]         dataFile        "cellDecomposition";
[42]     }
[42] }
[42] 
[42] Selecting decompositionMethod scotch
[43]  Foam::decompositionMethod::New 
[43] {
[43]     numberOfSubdomains 1792;
[43]     method          scotch;
[43]     simpleCoeffs
[43]     {
[43]         n               ( 4 1 1 );
[43]         delta           0.001;
[43]     }
[43]     hierarchicalCoeffs
[43]     {
[43]         n               ( 3 2 1 );
[43]         delta           0.001;
[43]         order           xyz;
[43]     }
[43]     manualCoeffs
[43]     {
[43]         dataFile        "cellDecomposition";
[43]     }
[43] }
[43] 
[43] Selecting decompositionMethod scotch
[44]  Foam::decompositionMethod::New 
[44] {
[44]     numberOfSubdomains 1792;
[44]     method          scotch;
[44]     simpleCoeffs
[44]     {
[44]         n               ( 4 1 1 );
[44]         delta           0.001;
[44]     }
[44]     hierarchicalCoeffs
[44]     {
[44]         n               ( 3 2 1 );
[44]         delta           0.001;
[44]         order           xyz;
[44]     }
[44]     manualCoeffs
[44]     {
[44]         dataFile        "cellDecomposition";
[44]     }
[44] }
[44] 
[44] Selecting decompositionMethod scotch
[45]  Foam::decompositionMethod::New 
[45] {
[45]     numberOfSubdomains 1792;
[45]     method          scotch;
[45]     simpleCoeffs
[45]     {
[45]         n               ( 4 1 1 );
[45]         delta           0.001;
[45]     }
[45]     hierarchicalCoeffs
[45]     {
[45]         n               ( 3 2 1 );
[45]         delta           0.001;
[45]         order           xyz;
[45]     }
[45]     manualCoeffs
[45]     {
[45]         dataFile        "cellDecomposition";
[45]     }
[45] }
[45] 
[45] Selecting decompositionMethod scotch
[46]  Foam::decompositionMethod::New 
[46] {
[46]     numberOfSubdomains 1792;
[46]     method          scotch;
[46]     simpleCoeffs
[46]     {
[46]         n               ( 4 1 1 );
[46]         delta           0.001;
[46]     }
[46]     hierarchicalCoeffs
[46]     {
[46]         n               ( 3 2 1 );
[46]         delta           0.001;
[46]         order           xyz;
[46]     }
[46]     manualCoeffs
[46]     {
[46]         dataFile        "cellDecomposition";
[46]     }
[46] }
[46] 
[46] Selecting decompositionMethod scotch
[47]  Foam::decompositionMethod::New 
[47] {
[47]     numberOfSubdomains 1792;
[47]     method          scotch;
[47]     simpleCoeffs
[47]     {
[47]         n               ( 4 1 1 );
[47]         delta           0.001;
[47]     }
[47]     hierarchicalCoeffs
[47]     {
[47]         n               ( 3 2 1 );
[47]         delta           0.001;
[47]         order           xyz;
[47]     }
[47]     manualCoeffs
[47]     {
[47]         dataFile        "cellDecomposition";
[47]     }
[47] }
[47] 
[47] Selecting decompositionMethod scotch
[48]  Foam::decompositionMethod::New 
[48] {
[48]     numberOfSubdomains 1792;
[48]     method          scotch;
[48]     simpleCoeffs
[48]     {
[48]         n               ( 4 1 1 );
[48]         delta           0.001;
[48]     }
[48]     hierarchicalCoeffs
[48]     {
[48]         n               ( 3 2 1 );
[48]         delta           0.001;
[48]         order           xyz;
[48]     }
[48]     manualCoeffs
[48]     {
[48]         dataFile        "cellDecomposition";
[48]     }
[48] }
[48] 
[48] Selecting decompositionMethod scotch
[49]  Foam::decompositionMethod::New 
[49] {
[49]     numberOfSubdomains 1792;
[49]     method          scotch;
[49]     simpleCoeffs
[49]     {
[49]         n               ( 4 1 1 );
[49]         delta           0.001;
[49]     }
[49]     hierarchicalCoeffs
[49]     {
[49]         n               ( 3 2 1 );
[49]         delta           0.001;
[49]         order           xyz;
[49]     }
[49]     manualCoeffs
[49]     {
[49]         dataFile        "cellDecomposition";
[49]     }
[49] }
[49] 
[49] Selecting decompositionMethod scotch
[50]  Foam::decompositionMethod::New 
[50] {
[50]     numberOfSubdomains 1792;
[50]     method          scotch;
[50]     simpleCoeffs
[50]     {
[50]         n               ( 4 1 1 );
[50]         delta           0.001;
[50]     }
[50]     hierarchicalCoeffs
[50]     {
[50]         n               ( 3 2 1 );
[50]         delta           0.001;
[50]         order           xyz;
[50]     }
[50]     manualCoeffs
[50]     {
[50]         dataFile        "cellDecomposition";
[50]     }
[50] }
[50] 
[50] Selecting decompositionMethod scotch
[51]  Foam::decompositionMethod::New 
[51] {
[51]     numberOfSubdomains 1792;
[51]     method          scotch;
[51]     simpleCoeffs
[51]     {
[51]         n               ( 4 1 1 );
[51]         delta           0.001;
[51]     }
[51]     hierarchicalCoeffs
[51]     {
[51]         n               ( 3 2 1 );
[51]         delta           0.001;
[51]         order           xyz;
[51]     }
[51]     manualCoeffs
[51]     {
[51]         dataFile        "cellDecomposition";
[51]     }
[51] }
[51] 
[51] Selecting decompositionMethod scotch
[52]  Foam::decompositionMethod::New 
[52] {
[52]     numberOfSubdomains 1792;
[52]     method          scotch;
[52]     simpleCoeffs
[52]     {
[52]         n               ( 4 1 1 );
[52]         delta           0.001;
[52]     }
[52]     hierarchicalCoeffs
[52]     {
[52]         n               ( 3 2 1 );
[52]         delta           0.001;
[52]         order           xyz;
[52]     }
[52]     manualCoeffs
[52]     {
[52]         dataFile        "cellDecomposition";
[52]     }
[52] }
[52] 
[52] Selecting decompositionMethod scotch
[53]  Foam::decompositionMethod::New 
[53] {
[53]     numberOfSubdomains 1792;
[53]     method          scotch;
[53]     simpleCoeffs
[53]     {
[53]         n               ( 4 1 1 );
[53]         delta           0.001;
[53]     }
[53]     hierarchicalCoeffs
[53]     {
[53]         n               ( 3 2 1 );
[53]         delta           0.001;
[53]         order           xyz;
[53]     }
[53]     manualCoeffs
[53]     {
[53]         dataFile        "cellDecomposition";
[53]     }
[53] }
[53] 
[53] Selecting decompositionMethod scotch
[54]  Foam::decompositionMethod::New 
[54] {
[54]     numberOfSubdomains 1792;
[54]     method          scotch;
[54]     simpleCoeffs
[54]     {
[54]         n               ( 4 1 1 );
[54]         delta           0.001;
[54]     }
[54]     hierarchicalCoeffs
[54]     {
[54]         n               ( 3 2 1 );
[54]         delta           0.001;
[54]         order           xyz;
[54]     }
[54]     manualCoeffs
[54]     {
[54]         dataFile        "cellDecomposition";
[54]     }
[54] }
[54] 
[54] Selecting decompositionMethod scotch
[55]  Foam::decompositionMethod::New 
[55] {
[55]     numberOfSubdomains 1792;
[55]     method          scotch;
[55]     simpleCoeffs
[55]     {
[55]         n               ( 4 1 1 );
[55]         delta           0.001;
[55]     }
[55]     hierarchicalCoeffs
[55]     {
[55]         n               ( 3 2 1 );
[55]         delta           0.001;
[55]         order           xyz;
[55]     }
[55]     manualCoeffs
[55]     {
[55]         dataFile        "cellDecomposition";
[55]     }
[55] }
[55] 
[55] Selecting decompositionMethod scotch
69    wall                motorBike_rear-shock-link-shadow%87
70    wall                motorBike_rear-brake-fluid-pot-bracket-shadow%88
71    wall                motorBike_rr-wh-chain-hub-shadow%89

Added patches in = 0.08 s

[0]  Foam::decompositionMethod::New 
[0] {
[0]     numberOfSubdomains 1792;
[0]     method          scotch;
[0]     simpleCoeffs
[0]     {
[0]         n               ( 4 1 1 );
[0]         delta           0.001;
[0]     }
[0]     hierarchicalCoeffs
[0]     {
[0]         n               ( 3 2 1 );
[0]         delta           0.001;
[0]         order           xyz;
[0]     }
[0]     manualCoeffs
[0]     {
[0]         dataFile        "cellDecomposition";
[0]     }
[0] }
[0] 
[0] Selecting decompositionMethod scotch
Layer thickness specified as final layer and expansion ratio.

Refinement phase
----------------

[168]  Foam::decompositionMethod::New 
[168] {
[168]     numberOfSubdomains 1792;
[168]     method          scotch;
[168]     simpleCoeffs
[168]     {
[168]         n               ( 4 1 1 );
[168]         delta           0.001;
[168]     }
[168]     hierarchicalCoeffs
[168]     {
[168]         n               ( 3 2 1 );
[168]         delta           0.001;
[168]         order           xyz;
[168]     }
[168]     manualCoeffs
[168]     {
[168]         dataFile        "cellDecomposition";
[168]     }
[168] }
[168] 
[168] Selecting decompositionMethod scotch
[280]  Foam::decompositionMethod::New 
[280] {
[280]     numberOfSubdomains 1792;
[280]     method          scotch;
[280]     simpleCoeffs
[280]     {
[280]         n               ( 4 1 1 );
[280]         delta           0.001;
[280]     }
[280]     hierarchicalCoeffs
[280]     {
[280]         n               ( 3 2 1 );
[280]         delta           0.001;
[280]         order           xyz;
[280]     }
[280]     manualCoeffs
[280]     {
[280]         dataFile        "cellDecomposition";
[280]     }
[280] }
[280] 
[280] Selecting decompositionMethod scotch
[112]  Foam::decompositionMethod::New 
[112] {
[112]     numberOfSubdomains 1792;
[112]     method          scotch;
[112]     simpleCoeffs
[112]     {
[112]         n               ( 4 1 1 );
[112]         delta           0.001;
[112]     }
[112]     hierarchicalCoeffs
[112]     {
[112]         n               ( 3 2 1 );
[112]         delta           0.001;
[112]         order           xyz;
[112]     }
[112]     manualCoeffs
[112]     {
[112]         dataFile        "cellDecomposition";
[112]     }
[112] }
[112] 
[112] Selecting decompositionMethod scotch
[1344]  Foam::decompositionMethod::New 
[1344] {
[1344]     numberOfSubdomains 1792;
[1344]     method          scotch;
[1344]     simpleCoeffs
[1344]     {
[1344]         n               ( 4 1 1 );
[1344]         delta           0.001;
[1344]     }
[1344]     hierarchicalCoeffs
[1344]     {
[1344]         n               ( 3 2 1 );
[1344]         delta           0.001;
[1344]         order           xyz;
[1344]     }
[1344]     manualCoeffs
[1344]     {
[1344]         dataFile        "cellDecomposition";
[1344]     }
[1344] }
[1344] 
[1344] Selecting decompositionMethod scotch
[1176]  Foam::decompositionMethod::New 
[1176] {
[1176]     numberOfSubdomains 1792;
[1176]     method          scotch;
[1176]     simpleCoeffs
[1176]     {
[1176]         n               ( 4 1 1 );
[1176]         delta           0.001;
[1176]     }
[1176]     hierarchicalCoeffs
[1176]     {
[1176]         n               ( 3 2 1 );
[1176]         delta           0.001;
[1176]         order           xyz;
[1176]     }
[1176]     manualCoeffs
[1176]     {
[1176]         dataFile        "cellDecomposition";
[1176]     }
[1176] }
[1176] 
[1176] Selecting decompositionMethod scotch
[1400]  Foam::decompositionMethod::New 
[1400] {
[1400]     numberOfSubdomains 1792;
[1400]     method          scotch;
[1400]     simpleCoeffs
[1400]     {
[1400]         n               ( 4 1 1 );
[1400]         delta           0.001;
[1400]     }
[1400]     hierarchicalCoeffs
[1400]     {
[1400]         n               ( 3 2 1 );
[1400]         delta           0.001;
[1400]         order           xyz;
[1400]     }
[1400]     manualCoeffs
[1400]     {
[1400]         dataFile        "cellDecomposition";
[1400]     }
[1400] }
[1400] 
[1400] Selecting decompositionMethod scotch
[952]  Foam::decompositionMethod::New 
[952] {
[952]     numberOfSubdomains 1792;
[952]     method          scotch;
[952]     simpleCoeffs
[952]     {
[952]         n               ( 4 1 1 );
[952]         delta           0.001;
[952]     }
[952]     hierarchicalCoeffs
[952]     {
[952]         n               ( 3 2 1 );
[952]         delta           0.001;
[952]         order           xyz;
[952]     }
[952]     manualCoeffs
[952]     {
[952]         dataFile        "cellDecomposition";
[952]     }
[952] }
[952] 
[952] Selecting decompositionMethod scotch
[392]  Foam::decompositionMethod::New 
[392] {
[392]     numberOfSubdomains 1792;
[392]     method          scotch;
[392]     simpleCoeffs
[392]     {
[392]         n               ( 4 1 1 );
[392]         delta           0.001;
[392]     }
[392]     hierarchicalCoeffs
[392]     {
[392]         n               ( 3 2 1 );
[392]         delta           0.001;
[392]         order           xyz;
[392]     }
[392]     manualCoeffs
[392]     {
[392]         dataFile        "cellDecomposition";
[392]     }
[392] }
[392] 
[392] Selecting decompositionMethod scotch
[1736]  Foam::decompositionMethod::New 
[1736] {
[1736]     numberOfSubdomains 1792;
[1736]     method          scotch;
[1736]     simpleCoeffs
[1736]     {
[1736]         n               ( 4 1 1 );
[1736]         delta           0.001;
[1736]     }
[1736]     hierarchicalCoeffs
[1736]     {
[1736]         n               ( 3 2 1 );
[1736]         delta           0.001;
[1736]         order           xyz;
[1736]     }
[1736]     manualCoeffs
[1736]     {
[1736]         dataFile        "cellDecomposition";
[1736]     }
[1736] }
[1736] 
[1736] Selecting decompositionMethod scotch
[1568]  Foam::decompositionMethod::New 
[1568] {
[1568]     numberOfSubdomains 1792;
[1568]     method          scotch;
[1568]     simpleCoeffs
[1568]     {
[1568]         n               ( 4 1 1 );
[1568]         delta           0.001;
[1568]     }
[1568]     hierarchicalCoeffs
[1568]     {
[1568]         n               ( 3 2 1 );
[1568]         delta           0.001;
[1568]         order           xyz;
[1568]     }
[1568]     manualCoeffs
[1568]     {
[1568]         dataFile        "cellDecomposition";
[1568]     }
[1568] }
[1568] 
[1568] Selecting decompositionMethod scotch
[1512]  Foam::decompositionMethod::New 
[1512] {
[1512]     numberOfSubdomains 1792;
[1512]     method          scotch;
[1512]     simpleCoeffs
[1512]     {
[1512]         n               ( 4 1 1 );
[1512]         delta           0.001;
[1512]     }
[1512]     hierarchicalCoeffs
[1512]     {
[1512]         n               ( 3 2 1 );
[1512]         delta           0.001;
[1512]         order           xyz;
[1512]     }
[1512]     manualCoeffs
[1512]     {
[1512]         dataFile        "cellDecomposition";
[1512]     }
[1512] }
[1512] 
[1512] Selecting decompositionMethod scotch
[1232]  Foam::decompositionMethod::New 
[1232] {
[1232]     numberOfSubdomains 1792;
[1232]     method          scotch;
[1232]     simpleCoeffs
[1232]     {
[1232]         n               ( 4 1 1 );
[1232]         delta           0.001;
[1232]     }
[1232]     hierarchicalCoeffs
[1232]     {
[1232]         n               ( 3 2 1 );
[1232]         delta           0.001;
[1232]         order           xyz;
[1232]     }
[1232]     manualCoeffs
[1232]     {
[1232]         dataFile        "cellDecomposition";
[1232]     }
[1232] }
[1232] 
[1232] Selecting decompositionMethod scotch
[896]  Foam::decompositionMethod::New 
[896] {
[896]     numberOfSubdomains 1792;
[896]     method          scotch;
[896]     simpleCoeffs
[896]     {
[896]         n               ( 4 1 1 );
[896]         delta           0.001;
[896]     }
[896]     hierarchicalCoeffs
[896]     {
[896]         n               ( 3 2 1 );
[896]         delta           0.001;
[896]         order           xyz;
[896]     }
[896]     manualCoeffs
[896]     {
[896]         dataFile        "cellDecomposition";
[896]     }
[896] }
[896] 
[896] Selecting decompositionMethod scotch
[840]  Foam::decompositionMethod::New 
[840] {
[840]     numberOfSubdomains 1792;
[840]     method          scotch;
[840]     simpleCoeffs
[840]     {
[840]         n               ( 4 1 1 );
[840]         delta           0.001;
[840]     }
[840]     hierarchicalCoeffs
[840]     {
[840]         n               ( 3 2 1 );
[840]         delta           0.001;
[840]         order           xyz;
[840]     }
[840]     manualCoeffs
[840]     {
[840]         dataFile        "cellDecomposition";
[840]     }
[840] }
[840] 
[840] Selecting decompositionMethod scotch
[504]  Foam::decompositionMethod::New 
[504] {
[504]     numberOfSubdomains 1792;
[504]     method          scotch;
[504]     simpleCoeffs
[504]     {
[504]         n               ( 4 1 1 );
[504]         delta           0.001;
[504]     }
[504]     hierarchicalCoeffs
[504]     {
[504]         n               ( 3 2 1 );
[504]         delta           0.001;
[504]         order           xyz;
[504]     }
[504]     manualCoeffs
[504]     {
[504]         dataFile        "cellDecomposition";
[504]     }
[504] }
[504] 
[504] Selecting decompositionMethod scotch
[169]  Foam::decompositionMethod::New 
[169] {
[169]     numberOfSubdomains 1792;
[169]     method          scotch;
[169]     simpleCoeffs
[169]     {
[169]         n               ( 4 1 1 );
[169]         delta           0.001;
[169]     }
[169]     hierarchicalCoeffs
[169]     {
[169]         n               ( 3 2 1 );
[169]         delta           0.001;
[169]         order           xyz;
[169]     }
[169]     manualCoeffs
[169]     {
[169]         dataFile        "cellDecomposition";
[169]     }
[169] }
[169] 
[169] Selecting decompositionMethod scotch
[281]  Foam::decompositionMethod::New 
[281] {
[281]     numberOfSubdomains 1792;
[281]     method          scotch;
[281]     simpleCoeffs
[...]
    faces with concavity > 80  degrees                     : 0
    faces with skewness > 4   (internal) or 20  (boundary) : 0
    faces with interpolation weights (0..1)  < 0.02        : 0
    faces with volume ratio of neighbour cells < 0.01      : 0
    faces with face twist < 0.02                           : 0
    faces on cells with determinant < 0.001                : 0
displacementMedialAxis : Successfully moved mesh
displacementMedialAxis : Finished moving mesh ...
truncateDisplacement : Unextruded 0 faces due to non-consecutive vertices being extruded.
truncateDisplacement : Unextruded 1 faces due to stringed edges with inconsistent extrusion.
truncateDisplacement : Unextruded 0 faces due to non-consecutive vertices being extruded.
truncateDisplacement : Unextruded 0 faces due to stringed edges with inconsistent extrusion.

Setting up information for layer truncation ...

Checking mesh with layer ...
Checking faces in error :
    non-orthogonality > 65  degrees                        : 2
    faces with face pyramid volume < 1e-13                 : 0
    faces with face-decomposition tet quality < 1e-15      : 4
    faces with concavity > 80  degrees                     : 0
    faces with skewness > 4   (internal) or 20  (boundary) : 0
    faces with interpolation weights (0..1)  < 0.02        : 0
    faces with volume ratio of neighbour cells < 0.01      : 0
    faces with face twist < 0.02                           : 0
    faces on cells with determinant < 0.001                : 0
Detected 6 illegal faces (concave, zero area or negative cell pyramid volume)
Extruding 143431 out of 183082 faces (78.3425%). Removed extrusion at 5 faces.
Added 143440 out of 183082 cells (78.3474%).


Layer addition iteration 26
--------------------------

Determining displacement for added points according to pointNormal ...
Detected 0 points with point normal pointing through faces.
Reset displacement at 0 points to average of surrounding points.

displacementMedialAxis : Smoothing using Medial Axis ...
displacementMedialAxis : Reducing layer thickness at 543 nodes where thickness to medial axis distance is large 
displacementMedialAxis : Removing isolated regions ...
displacementMedialAxis : Number of isolated points extrusion stopped : 9
displacementMedialAxis : Smoothing field ...
    Iteration 0   residual 4.6895e-05
displacementMedialAxis : Moving mesh ...
displacementMedialAxis : Iteration 0
Moving mesh using displacement scaling : min:1  max:1
Checking faces in error :
    non-orthogonality > 65  degrees                        : 0
    faces with face pyramid volume < 1e-13                 : 0
    faces with face-decomposition tet quality < 1e-15      : 21
    faces with concavity > 80  degrees                     : 0
    faces with skewness > 4   (internal) or 20  (boundary) : 0
    faces with interpolation weights (0..1)  < 0.02        : 0
    faces with volume ratio of neighbour cells < 0.01      : 0
    faces with face twist < 0.02                           : 4
    faces on cells with determinant < 0.001                : 0
displacementMedialAxis : Iteration 1
Moving mesh using displacement scaling : min:0.75  max:1
Checking faces in error :
    non-orthogonality > 65  degrees                        : 0
    faces with face pyramid volume < 1e-13                 : 0
    faces with face-decomposition tet quality < 1e-15      : 8
    faces with concavity > 80  degrees                     : 0
    faces with skewness > 4   (internal) or 20  (boundary) : 0
    faces with interpolation weights (0..1)  < 0.02        : 0
    faces with volume ratio of neighbour cells < 0.01      : 0
    faces with face twist < 0.02                           : 1
    faces on cells with determinant < 0.001                : 0
displacementMedialAxis : Iteration 2
Moving mesh using displacement scaling : min:0.5625  max:1
Checking faces in error :
    non-orthogonality > 65  degrees                        : 0
    faces with face pyramid volume < 1e-13                 : 0
    faces with face-decomposition tet quality < 1e-15      : 5
    faces with concavity > 80  degrees                     : 0
    faces with skewness > 4   (internal) or 20  (boundary) : 0
    faces with interpolation weights (0..1)  < 0.02        : 0
    faces with volume ratio of neighbour cells < 0.01      : 0
    faces with face twist < 0.02                           : 1
    faces on cells with determinant < 0.001                : 0
displacementMedialAxis : Iteration 3
displacementMedialAxis : Displacement scaling for error reduction set to 0.
Moving mesh using displacement scaling : min:0.421875  max:1
Checking faces in error :
    non-orthogonality > 65  degrees                        : 0
    faces with face pyramid volume < 1e-13                 : 0
    faces with face-decomposition tet quality < 1e-15      : 2
    faces with concavity > 80  degrees                     : 0
    faces with skewness > 4   (internal) or 20  (boundary) : 0
    faces with interpolation weights (0..1)  < 0.02        : 0
    faces with volume ratio of neighbour cells < 0.01      : 0
    faces with face twist < 0.02                           : 1
    faces on cells with determinant < 0.001                : 0
displacementMedialAxis : Iteration 4
Moving mesh using displacement scaling : min:0  max:1
Checking faces in error :
    non-orthogonality > 65  degrees                        : 0
    faces with face pyramid volume < 1e-13                 : 0
    faces with face-decomposition tet quality < 1e-15      : 0
    faces with concavity > 80  degrees                     : 0
    faces with skewness > 4   (internal) or 20  (boundary) : 0
    faces with interpolation weights (0..1)  < 0.02        : 0
    faces with volume ratio of neighbour cells < 0.01      : 0
    faces with face twist < 0.02                           : 0
    faces on cells with determinant < 0.001                : 0
displacementMedialAxis : Successfully moved mesh
displacementMedialAxis : Finished moving mesh ...
truncateDisplacement : Unextruded 0 faces due to non-consecutive vertices being extruded.
truncateDisplacement : Unextruded 0 faces due to stringed edges with inconsistent extrusion.

Setting up information for layer truncation ...

Checking mesh with layer ...
Checking faces in error :
    non-orthogonality > 65  degrees                        : 0
    faces with face pyramid volume < 1e-13                 : 0
    faces with face-decomposition tet quality < 1e-15      : 1
    faces with concavity > 80  degrees                     : 0
    faces with skewness > 4   (internal) or 20  (boundary) : 0
    faces with interpolation weights (0..1)  < 0.02        : 0
    faces with volume ratio of neighbour cells < 0.01      : 0
    faces with face twist < 0.02                           : 0
    faces on cells with determinant < 0.001                : 0
Detected 1 illegal faces (concave, zero area or negative cell pyramid volume)
Extruding 143420 out of 183082 faces (78.3365%). Removed extrusion at 1 faces.
Added 143421 out of 183082 cells (78.337%).


Layer addition iteration 27
--------------------------

Determining displacement for added points according to pointNormal ...
Detected 0 points with point normal pointing through faces.
Reset displacement at 0 points to average of surrounding points.

displacementMedialAxis : Smoothing using Medial Axis ...
displacementMedialAxis : Reducing layer thickness at 543 nodes where thickness to medial axis distance is large 
displacementMedialAxis : Removing isolated regions ...
displacementMedialAxis : Number of isolated points extrusion stopped : 2
displacementMedialAxis : Smoothing field ...
    Iteration 0   residual 4.68913e-05
displacementMedialAxis : Moving mesh ...
displacementMedialAxis : Iteration 0
Moving mesh using displacement scaling : min:1  max:1
Checking faces in error :
    non-orthogonality > 65  degrees                        : 0
    faces with face pyramid volume < 1e-13                 : 0
    faces with face-decomposition tet quality < 1e-15      : 21
    faces with concavity > 80  degrees                     : 0
    faces with skewness > 4   (internal) or 20  (boundary) : 0
    faces with interpolation weights (0..1)  < 0.02        : 0
    faces with volume ratio of neighbour cells < 0.01      : 0
    faces with face twist < 0.02                           : 4
    faces on cells with determinant < 0.001                : 0
displacementMedialAxis : Iteration 1
Moving mesh using displacement scaling : min:0.75  max:1
Checking faces in error :
    non-orthogonality > 65  degrees                        : 0
    faces with face pyramid volume < 1e-13                 : 0
    faces with face-decomposition tet quality < 1e-15      : 8
    faces with concavity > 80  degrees                     : 0
    faces with skewness > 4   (internal) or 20  (boundary) : 0
    faces with interpolation weights (0..1)  < 0.02        : 0
    faces with volume ratio of neighbour cells < 0.01      : 0
    faces with face twist < 0.02                           : 1
    faces on cells with determinant < 0.001                : 0
displacementMedialAxis : Iteration 2
Moving mesh using displacement scaling : min:0.5625  max:1
Checking faces in error :
    non-orthogonality > 65  degrees                        : 0
    faces with face pyramid volume < 1e-13                 : 0
    faces with face-decomposition tet quality < 1e-15      : 5
    faces with concavity > 80  degrees                     : 0
    faces with skewness > 4   (internal) or 20  (boundary) : 0
    faces with interpolation weights (0..1)  < 0.02        : 0
    faces with volume ratio of neighbour cells < 0.01      : 0
    faces with face twist < 0.02                           : 1
    faces on cells with determinant < 0.001                : 0
displacementMedialAxis : Iteration 3
displacementMedialAxis : Displacement scaling for error reduction set to 0.
Moving mesh using displacement scaling : min:0.421875  max:1
Checking faces in error :
    non-orthogonality > 65  degrees                        : 0
    faces with face pyramid volume < 1e-13                 : 0
    faces with face-decomposition tet quality < 1e-15      : 2
    faces with concavity > 80  degrees                     : 0
    faces with skewness > 4   (internal) or 20  (boundary) : 0
    faces with interpolation weights (0..1)  < 0.02        : 0
    faces with volume ratio of neighbour cells < 0.01      : 0
    faces with face twist < 0.02                           : 1
    faces on cells with determinant < 0.001                : 0
displacementMedialAxis : Iteration 4
Moving mesh using displacement scaling : min:0  max:1
Checking faces in error :
    non-orthogonality > 65  degrees                        : 0
    faces with face pyramid volume < 1e-13                 : 0
    faces with face-decomposition tet quality < 1e-15      : 0
    faces with concavity > 80  degrees                     : 0
    faces with skewness > 4   (internal) or 20  (boundary) : 0
    faces with interpolation weights (0..1)  < 0.02        : 0
    faces with volume ratio of neighbour cells < 0.01      : 0
    faces with face twist < 0.02                           : 0
    faces on cells with determinant < 0.001                : 0
displacementMedialAxis : Successfully moved mesh
displacementMedialAxis : Finished moving mesh ...
truncateDisplacement : Unextruded 0 faces due to non-consecutive vertices being extruded.
truncateDisplacement : Unextruded 0 faces due to stringed edges with inconsistent extrusion.

Setting up information for layer truncation ...

Checking mesh with layer ...
Checking faces in error :
    non-orthogonality > 65  degrees                        : 0
    faces with face pyramid volume < 1e-13                 : 0
    faces with face-decomposition tet quality < 1e-15      : 0
    faces with concavity > 80  degrees                     : 0
    faces with skewness > 4   (internal) or 20  (boundary) : 0
    faces with interpolation weights (0..1)  < 0.02        : 0
    faces with volume ratio of neighbour cells < 0.01      : 0
    faces with face twist < 0.02                           : 0
    faces on cells with determinant < 0.001                : 0
Detected 0 illegal faces (concave, zero area or negative cell pyramid volume)
Extruding 143416 out of 183082 faces (78.3343%). Removed extrusion at 0 faces.
Added 143416 out of 183082 cells (78.3343%).
Edge intersection testing:
    Number of edges             : 5927249
    Number of edges to retest   : 0
    Number of intersected edges : 292942

Doing final balancing
---------------------

Writing 143416 added cells to cellSet addedCells
Writing 0 faces inside added layer to faceSet layerFaces

Writing fields with layer information:
    nSurfaceLayers    : actual number of layers
    thickness         : overall layer thickness
    thicknessFraction : overall layer thickness (fraction of desired thickness)


patch                                            faces    layers   overall thickness
                                                                   [m]       [%]
-----                                            -----    ------   ---       ---
lowerWall                                        15841    0.994    0.0145    96.3    
motorBike_frt-fairing:001%1                      21804    0.741    0.00131   55.8    
motorBike_windshield:002%2                       182      0.951    0.00206   87.8    
motorBike_rr-wh-rim:005%5                        576      0.875    0.0011    46.9    
motorBike_rr-wh-rim:010%10                       1375     0.172    0.000286  12.2    
motorBike_fr-wh-rim:011%11                       1778     0.538    0.000582  24.8    
motorBike_fr-wh-brake-disk:012%12                255      1        0.00104   44.6    
motorBike_frame:016-shadow%13                    432      0.37     0.000305  13.1    
motorBike_rear-susp:014%14                       3645     0.789    0.00111   47.4    
motorBike_rear-susp:014-shadow%15                2139     0.774    0.00111   47.3    
motorBike_frame:016%16                           255      0.318    0.000271  11.6    
motorBike_rr-wh-rim:005-shadow%17                314      0.818    0.00103   44.1    
motorBike_rr-wh-chain-hub:022%22                 456      0.456    0.000363  15.5    
motorBike_rearseat%24                            1364     0.879    0.00174   68.1    
motorBike_frt-fairing%25                         2209     0.876    0.0015    63.1    
motorBike_windshield%26                          1500     0.656    0.00113   48      
motorBike_headlights%27                          589      0.98     0.00215   91.8    
motorBike_driversseat%28                         1605     0.787    0.00122   52      
motorBike_rear-body%29                           7424     0.891    0.00162   66.6    
motorBike_fuel-tank%30                           3223     0.921    0.00192   78.5    
motorBike_exhaust%31                             8453     0.718    0.00135   53.9    
motorBike_rr-wh-rim%32                           4382     0.873    0.00146   58.3    
motorBike_fr-mud-guard%33                        3145     0.559    0.000685  29.3    
motorBike_fr-wh-rim%34                           2206     0.905    0.00154   65.7    
motorBike_fr-wh-brake-disk%35                    1744     0.764    0.000757  32.3    
motorBike_fr-brake-caliper%36                    573      0.23     0.000158  6.79    
motorBike_fr-wh-tyre%37                          5022     0.735    0.00135   57.6    
motorBike_hbars%38                               2023     0.22     0.000223  9.55    
motorBike_fr-forks%39                            4354     0.724    0.0013    55.6    
motorBike_chain%40                               1803     0.111    8.02e-05  3.43    
motorBike_rr-wh-tyre%41                          4570     0.8      0.00173   59.2    
motorBike_square-dial%42                         20       1        0.00192   81.9    
motorBike_round-dial%43                          45       0.978    0.00101   43.2    
motorBike_dial-holder%44                         342      0.74     0.00071   30.5    
motorBike_rear-susp%45                           7093     0.786    0.000955  40.8    
motorBike_rear-brake-lights%46                   203      0.493    0.000425  18.3    
motorBike_rear-light-bracket%47                  636      0.846    0.00117   49.9    
motorBike_frame%48                               7640     0.796    0.00133   56.7    
motorBike_rear-mud-guard%49                      2551     0.743    0.00123   52.5    
motorBike_rear-susp-spring-damp%50               427      0.56     0.000536  22.9    
motorBike_fairing-inner-plate%51                 1562     0.805    0.00127   51.3    
motorBike_clutch-housing%52                      3832     0.968    0.00178   75.4    
motorBike_radiator%53                            434      0.113    5.16e-05  2.22    
motorBike_water-pipe%54                          324      0        0         0       
motorBike_water-pump%55                          267      0.378    0.000324  14.2    
motorBike_engine%56                              8695     0.901    0.00154   64.4    
motorBike_rear-shock-link%57                     98       0        0         0       
motorBike_rear-brake-fluid-pot-bracket%58        162      0.636    0.000604  25.8    
motorBike_rear-brake-fluid-pot%59                201      0.587    0.000368  15.9    
motorBike_footpeg%60                             349      0.301    0.000143  6.12    
motorBike_rr-wh-chain-hub%61                     465      0.766    0.000707  30.2    
motorBike_rear-brake-caliper%62                  582      0.4      0.000318  13.6    
motorBike_rider-helmet%65                        1805     0.953    0.00232   79.2    
motorBike_rider-visor%66                         547      1        0.00231   96.9    
motorBike_rider-boots%67                         3731     0.96     0.00198   84      
motorBike_rider-gloves%68                        1210     0.464    0.000769  32.8    
motorBike_rider-body%69                          14319    0.933    0.00219   80.9    
motorBike_frame:0%70                             144      0.674    0.00103   43.8    
motorBike_frt-fairing:001-shadow%74              13579    0.718    0.00129   55.1    
motorBike_windshield-shadow%75                   999      0.624    0.00114   48.7    
motorBike_fr-mud-guard-shadow%81                 2068     0.56     0.00071   30.4    
motorBike_fr-wh-brake-disk-shadow%83             929      0.788    0.000771  32.9    
motorBike_rear-mud-guard-shadow%84               1617     0.714    0.00121   51.6    
motorBike_rear-susp-spring-damp-shadow%85        290      0.569    0.000501  21.4    
motorBike_radiator-shadow%86                     243      0.148    7.85e-05  3.39    
motorBike_rear-shock-link-shadow%87              68       0        0         0       
motorBike_rear-brake-fluid-pot-bracket-shadow%88 94       0.734    0.000765  32.7    
motorBike_rr-wh-chain-hub-shadow%89              270      0.741    0.000677  28.9    

Layer mesh : cells:1909655  faces:5927249  points:2130437
Cells per refinement level:
    0	9545
    1	4936
    2	16075
    3	48280
    4	991342
    5	127766
    6	711711
Writing mesh to time constant
Wrote mesh in = 898.6 s.
Layers added in = 898.6 s.
Checking final mesh ...
Checking faces in error :
    non-orthogonality > 65  degrees                        : 0
    faces with face pyramid volume < 1e-13                 : 0
    faces with face-decomposition tet quality < 1e-15      : 0
    faces with concavity > 80  degrees                     : 0
    faces with skewness > 4   (internal) or 20  (boundary) : 0
    faces with interpolation weights (0..1)  < 0.02        : 0
    faces with volume ratio of neighbour cells < 0.01      : 0
    faces with face twist < 0.02                           : 0
    faces on cells with determinant < 0.001                : 0
Finished meshing without any errors
Finished meshing in = 1616.63 s.
End

Finalising parallel run
