Cleaning /rds/user/hpcbras1/hpc-work/csd3/cclake-ib-gcc9-ompi3-ucx/openfoam/Openfoam_Mbike_csd3_cclake_ib_gcc9_ompi3_ucx_1792_56 case
Running surfaceFeatureExtract on /rds/user/hpcbras1/hpc-work/csd3/cclake-ib-gcc9-ompi3-ucx/openfoam/Openfoam_Mbike_csd3_cclake_ib_gcc9_ompi3_ucx_1792_56
Running blockMesh on /rds/user/hpcbras1/hpc-work/csd3/cclake-ib-gcc9-ompi3-ucx/openfoam/Openfoam_Mbike_csd3_cclake_ib_gcc9_ompi3_ucx_1792_56
Running decomposePar on /rds/user/hpcbras1/hpc-work/csd3/cclake-ib-gcc9-ompi3-ucx/openfoam/Openfoam_Mbike_csd3_cclake_ib_gcc9_ompi3_ucx_1792_56
Running snappyHexMesh in parallel on /rds/user/hpcbras1/hpc-work/csd3/cclake-ib-gcc9-ompi3-ucx/openfoam/Openfoam_Mbike_csd3_cclake_ib_gcc9_ompi3_ucx_1792_56 using 1792 processes
/*---------------------------------------------------------------------------*\
  =========                 |
  \\      /  F ield         | OpenFOAM: The Open Source CFD Toolbox
   \\    /   O peration     | Website:  https://openfoam.org
    \\  /    A nd           | Version:  7
     \\/     M anipulation  |
\*---------------------------------------------------------------------------*/
Build  : 7
Exec   : /home/hpcbras1/spack/opt/spack/linux-scientific7-skylake_avx512/gcc-9.1.0/openfoam-org-7-dahapwszurcwmfsxldhpukzh3tv4odmy/platforms/linux64GccDPInt32-spack/bin/simpleFoam -parallel
Date   : Oct 14 2020
Time   : 16:27:01
Host   : "cpu-p-288"
PID    : 231789
I/O    : uncollated
Case   : /rds/user/hpcbras1/hpc-work/csd3/cclake-ib-gcc9-ompi3-ucx/openfoam/Openfoam_Mbike_csd3_cclake_ib_gcc9_ompi3_ucx_1792_56
nProcs : 1792
Slaves : 
1791
(
"cpu-p-288.231790"
"cpu-p-288.231791"
"cpu-p-288.231792"
"cpu-p-288.231793"
"cpu-p-288.231794"
"cpu-p-288.231795"
"cpu-p-288.231796"
"cpu-p-288.231797"
"cpu-p-288.231798"
"cpu-p-288.231799"
"cpu-p-288.231800"
"cpu-p-288.231801"
"cpu-p-288.231802"
"cpu-p-288.231803"
"cpu-p-288.231804"
"cpu-p-288.231805"
"cpu-p-288.231806"
"cpu-p-288.231807"
"cpu-p-288.231808"
"cpu-p-288.231809"
"cpu-p-288.231810"
"cpu-p-288.231811"
"cpu-p-288.231812"
"cpu-p-288.231813"
"cpu-p-288.231814"
"cpu-p-288.231815"
"cpu-p-288.231816"
"cpu-p-288.231817"
"cpu-p-288.231818"
"cpu-p-288.231819"
"cpu-p-288.231820"
"cpu-p-288.231821"
"cpu-p-288.231822"
"cpu-p-288.231823"
"cpu-p-288.231824"
"cpu-p-288.231825"
"cpu-p-288.231826"
"cpu-p-288.231827"
"cpu-p-288.231828"
"cpu-p-288.231829"
"cpu-p-288.231830"
"cpu-p-288.231831"
"cpu-p-288.231832"
"cpu-p-288.231833"
"cpu-p-288.231834"
"cpu-p-288.231835"
"cpu-p-288.231836"
"cpu-p-288.231837"
"cpu-p-288.231838"
"cpu-p-288.231839"
"cpu-p-288.231840"
"cpu-p-288.231841"
"cpu-p-288.231842"
"cpu-p-288.231843"
"cpu-p-288.231844"
"cpu-p-289.225324"
"cpu-p-289.225325"
"cpu-p-289.225326"
"cpu-p-289.225327"
"cpu-p-289.225328"
"cpu-p-289.225329"
"cpu-p-289.225330"
"cpu-p-289.225331"
"cpu-p-289.225332"
"cpu-p-289.225333"
"cpu-p-289.225334"
"cpu-p-289.225335"
"cpu-p-289.225336"
"cpu-p-289.225337"
"cpu-p-289.225338"
"cpu-p-289.225339"
"cpu-p-289.225340"
"cpu-p-289.225341"
"cpu-p-289.225342"
"cpu-p-289.225343"
"cpu-p-289.225344"
"cpu-p-289.225345"
"cpu-p-289.225346"
"cpu-p-289.225347"
"cpu-p-289.225348"
"cpu-p-289.225349"
"cpu-p-289.225350"
"cpu-p-289.225351"
"cpu-p-289.225352"
"cpu-p-289.225353"
"cpu-p-289.225354"
"cpu-p-289.225355"
"cpu-p-289.225356"
"cpu-p-289.225357"
"cpu-p-289.225358"
"cpu-p-289.225359"
"cpu-p-289.225360"
"cpu-p-289.225361"
"cpu-p-289.225362"
"cpu-p-289.225363"
"cpu-p-289.225364"
"cpu-p-289.225365"
"cpu-p-289.225366"
"cpu-p-289.225367"
"cpu-p-289.225368"
"cpu-p-289.225369"
"cpu-p-289.225370"
"cpu-p-289.225371"
"cpu-p-289.225372"
"cpu-p-289.225373"
"cpu-p-289.225374"
"cpu-p-289.225375"
"cpu-p-289.225376"
"cpu-p-289.225377"
"cpu-p-289.225378"
"cpu-p-289.225379"
"cpu-p-290.154103"
"cpu-p-290.154104"
"cpu-p-290.154105"
"cpu-p-290.154106"
"cpu-p-290.154107"
"cpu-p-290.154108"
"cpu-p-290.154109"
"cpu-p-290.154110"
"cpu-p-290.154111"
"cpu-p-290.154112"
"cpu-p-290.154113"
"cpu-p-290.154114"
"cpu-p-290.154115"
"cpu-p-290.154116"
"cpu-p-290.154117"
"cpu-p-290.154118"
"cpu-p-290.154119"
"cpu-p-290.154120"
"cpu-p-290.154121"
"cpu-p-290.154122"
"cpu-p-290.154123"
"cpu-p-290.154124"
"cpu-p-290.154125"
"cpu-p-290.154126"
"cpu-p-290.154127"
"cpu-p-290.154128"
"cpu-p-290.154129"
"cpu-p-290.154130"
"cpu-p-290.154131"
"cpu-p-290.154132"
"cpu-p-290.154133"
"cpu-p-290.154134"
"cpu-p-290.154135"
"cpu-p-290.154136"
"cpu-p-290.154137"
"cpu-p-290.154138"
"cpu-p-290.154139"
"cpu-p-290.154140"
"cpu-p-290.154141"
"cpu-p-290.154142"
"cpu-p-290.154143"
"cpu-p-290.154144"
"cpu-p-290.154145"
"cpu-p-290.154146"
"cpu-p-290.154147"
"cpu-p-290.154148"
"cpu-p-290.154149"
"cpu-p-290.154150"
"cpu-p-290.154151"
"cpu-p-290.154152"
"cpu-p-290.154153"
"cpu-p-290.154154"
"cpu-p-290.154155"
"cpu-p-290.154156"
"cpu-p-290.154157"
"cpu-p-290.154158"
"cpu-p-291.64287"
"cpu-p-291.64288"
"cpu-p-291.64289"
"cpu-p-291.64290"
"cpu-p-291.64291"
"cpu-p-291.64292"
"cpu-p-291.64293"
"cpu-p-291.64294"
"cpu-p-291.64295"
"cpu-p-291.64296"
"cpu-p-291.64297"
"cpu-p-291.64298"
"cpu-p-291.64299"
"cpu-p-291.64300"
"cpu-p-291.64301"
"cpu-p-291.64302"
"cpu-p-291.64303"
"cpu-p-291.64304"
"cpu-p-291.64305"
"cpu-p-291.64306"
"cpu-p-291.64307"
"cpu-p-291.64308"
"cpu-p-291.64309"
"cpu-p-291.64310"
"cpu-p-291.64311"
"cpu-p-291.64312"
"cpu-p-291.64313"
"cpu-p-291.64314"
"cpu-p-291.64315"
"cpu-p-291.64316"
"cpu-p-291.64317"
"cpu-p-291.64318"
"cpu-p-291.64319"
"cpu-p-291.64320"
"cpu-p-291.64321"
"cpu-p-291.64322"
"cpu-p-291.64323"
"cpu-p-291.64324"
"cpu-p-291.64325"
"cpu-p-291.64326"
"cpu-p-291.64327"
"cpu-p-291.64328"
"cpu-p-291.64329"
"cpu-p-291.64330"
"cpu-p-291.64331"
"cpu-p-291.64332"
"cpu-p-291.64333"
"cpu-p-291.64334"
"cpu-p-291.64335"
"cpu-p-291.64336"
"cpu-p-291.64337"
"cpu-p-291.64338"
"cpu-p-291.64339"
"cpu-p-291.64340"
"cpu-p-291.64341"
"cpu-p-291.64342"
"cpu-p-292.153969"
"cpu-p-292.153970"
"cpu-p-292.153971"
"cpu-p-292.153972"
"cpu-p-292.153973"
"cpu-p-292.153974"
"cpu-p-292.153975"
"cpu-p-292.153976"
"cpu-p-292.153977"
"cpu-p-292.153978"
"cpu-p-292.153979"
"cpu-p-292.153980"
"cpu-p-292.153981"
"cpu-p-292.153982"
"cpu-p-292.153983"
"cpu-p-292.153984"
"cpu-p-292.153985"
"cpu-p-292.153986"
"cpu-p-292.153987"
"cpu-p-292.153988"
"cpu-p-292.153989"
"cpu-p-292.153990"
"cpu-p-292.153991"
"cpu-p-292.153992"
"cpu-p-292.153993"
"cpu-p-292.153994"
"cpu-p-292.153995"
"cpu-p-292.153996"
"cpu-p-292.153997"
"cpu-p-292.153998"
"cpu-p-292.153999"
"cpu-p-292.154000"
"cpu-p-292.154001"
"cpu-p-292.154002"
"cpu-p-292.154003"
"cpu-p-292.154004"
"cpu-p-292.154005"
"cpu-p-292.154006"
"cpu-p-292.154007"
"cpu-p-292.154008"
"cpu-p-292.154009"
"cpu-p-292.154010"
"cpu-p-292.154011"
"cpu-p-292.154012"
"cpu-p-292.154013"
"cpu-p-292.154014"
"cpu-p-292.154015"
"cpu-p-292.154016"
"cpu-p-292.154017"
"cpu-p-292.154018"
"cpu-p-292.154019"
"cpu-p-292.154020"
"cpu-p-292.154021"
"cpu-p-292.154022"
"cpu-p-292.154023"
"cpu-p-292.154024"
"cpu-p-293.142574"
"cpu-p-293.142575"
"cpu-p-293.142576"
"cpu-p-293.142577"
"cpu-p-293.142578"
"cpu-p-293.142579"
"cpu-p-293.142580"
"cpu-p-293.142581"
"cpu-p-293.142582"
"cpu-p-293.142583"
"cpu-p-293.142584"
"cpu-p-293.142585"
"cpu-p-293.142586"
"cpu-p-293.142587"
"cpu-p-293.142588"
"cpu-p-293.142589"
"cpu-p-293.142590"
"cpu-p-293.142591"
"cpu-p-293.142592"
"cpu-p-293.142593"
"cpu-p-293.142594"
"cpu-p-293.142595"
"cpu-p-293.142596"
"cpu-p-293.142597"
"cpu-p-293.142598"
"cpu-p-293.142599"
"cpu-p-293.142600"
"cpu-p-293.142601"
"cpu-p-293.142602"
"cpu-p-293.142603"
"cpu-p-293.142604"
"cpu-p-293.142605"
"cpu-p-293.142606"
"cpu-p-293.142607"
"cpu-p-293.142608"
"cpu-p-293.142609"
"cpu-p-293.142610"
"cpu-p-293.142611"
"cpu-p-293.142612"
"cpu-p-293.142613"
"cpu-p-293.142614"
"cpu-p-293.142615"
"cpu-p-293.142616"
"cpu-p-293.142617"
"cpu-p-293.142618"
"cpu-p-293.142619"
"cpu-p-293.142620"
"cpu-p-293.142621"
"cpu-p-293.142622"
"cpu-p-293.142623"
"cpu-p-293.142624"
"cpu-p-293.142625"
"cpu-p-293.142626"
"cpu-p-293.142627"
"cpu-p-293.142628"
"cpu-p-293.142629"
"cpu-p-294.144658"
"cpu-p-294.144659"
"cpu-p-294.144660"
"cpu-p-294.144661"
"cpu-p-294.144662"
"cpu-p-294.144663"
"cpu-p-294.144664"
"cpu-p-294.144665"
"cpu-p-294.144666"
"cpu-p-294.144667"
"cpu-p-294.144668"
"cpu-p-294.144669"
"cpu-p-294.144670"
"cpu-p-294.144671"
"cpu-p-294.144672"
"cpu-p-294.144673"
"cpu-p-294.144674"
"cpu-p-294.144675"
"cpu-p-294.144676"
"cpu-p-294.144677"
"cpu-p-294.144678"
"cpu-p-294.144679"
"cpu-p-294.144680"
"cpu-p-294.144681"
"cpu-p-294.144682"
"cpu-p-294.144683"
"cpu-p-294.144684"
"cpu-p-294.144685"
"cpu-p-294.144686"
"cpu-p-294.144687"
"cpu-p-294.144688"
"cpu-p-294.144689"
"cpu-p-294.144690"
"cpu-p-294.144691"
"cpu-p-294.144692"
"cpu-p-294.144693"
"cpu-p-294.144694"
"cpu-p-294.144695"
"cpu-p-294.144696"
"cpu-p-294.144697"
"cpu-p-294.144698"
"cpu-p-294.144699"
"cpu-p-294.144700"
"cpu-p-294.144701"
"cpu-p-294.144702"
"cpu-p-294.144703"
"cpu-p-294.144704"
"cpu-p-294.144705"
"cpu-p-294.144706"
"cpu-p-294.144707"
"cpu-p-294.144708"
"cpu-p-294.144709"
"cpu-p-294.144710"
"cpu-p-294.144711"
"cpu-p-294.144712"
"cpu-p-294.144713"
"cpu-p-312.141087"
"cpu-p-312.141088"
"cpu-p-312.141089"
"cpu-p-312.141090"
"cpu-p-312.141091"
"cpu-p-312.141092"
"cpu-p-312.141093"
"cpu-p-312.141094"
"cpu-p-312.141095"
"cpu-p-312.141096"
"cpu-p-312.141097"
"cpu-p-312.141098"
"cpu-p-312.141099"
"cpu-p-312.141100"
"cpu-p-312.141101"
"cpu-p-312.141102"
"cpu-p-312.141103"
"cpu-p-312.141104"
"cpu-p-312.141105"
"cpu-p-312.141106"
"cpu-p-312.141107"
"cpu-p-312.141108"
"cpu-p-312.141109"
"cpu-p-312.141110"
"cpu-p-312.141111"
"cpu-p-312.141112"
"cpu-p-312.141113"
"cpu-p-312.141114"
"cpu-p-312.141115"
"cpu-p-312.141116"
"cpu-p-312.141117"
"cpu-p-312.141118"
"cpu-p-312.141119"
"cpu-p-312.141120"
"cpu-p-312.141121"
"cpu-p-312.141122"
"cpu-p-312.141123"
"cpu-p-312.141124"
"cpu-p-312.141125"
"cpu-p-312.141126"
"cpu-p-312.141127"
"cpu-p-312.141128"
"cpu-p-312.141129"
"cpu-p-312.141130"
"cpu-p-312.141131"
"cpu-p-312.141132"
"cpu-p-312.141133"
"cpu-p-312.141134"
"cpu-p-312.141135"
"cpu-p-312.141136"
"cpu-p-312.141137"
"cpu-p-312.141138"
"cpu-p-312.141139"
"cpu-p-312.141140"
"cpu-p-312.141141"
"cpu-p-312.141142"
"cpu-p-313.133197"
"cpu-p-313.133198"
"cpu-p-313.133199"
"cpu-p-313.133200"
"cpu-p-313.133201"
"cpu-p-313.133202"
"cpu-p-313.133203"
"cpu-p-313.133204"
"cpu-p-313.133205"
"cpu-p-313.133206"
"cpu-p-313.133207"
"cpu-p-313.133208"
"cpu-p-313.133209"
"cpu-p-313.133210"
"cpu-p-313.133211"
"cpu-p-313.133212"
"cpu-p-313.133213"
"cpu-p-313.133214"
"cpu-p-313.133215"
"cpu-p-313.133216"
"cpu-p-313.133217"
"cpu-p-313.133218"
"cpu-p-313.133219"
"cpu-p-313.133220"
"cpu-p-313.133221"
"cpu-p-313.133222"
"cpu-p-313.133223"
"cpu-p-313.133224"
"cpu-p-313.133225"
"cpu-p-313.133226"
"cpu-p-313.133227"
"cpu-p-313.133228"
"cpu-p-313.133229"
"cpu-p-313.133230"
"cpu-p-313.133231"
"cpu-p-313.133232"
"cpu-p-313.133233"
"cpu-p-313.133234"
"cpu-p-313.133235"
"cpu-p-313.133236"
"cpu-p-313.133237"
"cpu-p-313.133238"
"cpu-p-313.133239"
"cpu-p-313.133240"
"cpu-p-313.133241"
"cpu-p-313.133242"
"cpu-p-313.133243"
"cpu-p-313.133244"
"cpu-p-313.133245"
"cpu-p-313.133246"
"cpu-p-313.133247"
"cpu-p-313.133248"
"cpu-p-313.133249"
"cpu-p-313.133250"
"cpu-p-313.133251"
"cpu-p-313.133252"
"cpu-p-314.69065"
"cpu-p-314.69066"
"cpu-p-314.69067"
"cpu-p-314.69068"
"cpu-p-314.69069"
"cpu-p-314.69070"
"cpu-p-314.69071"
"cpu-p-314.69072"
"cpu-p-314.69073"
"cpu-p-314.69074"
"cpu-p-314.69075"
"cpu-p-314.69076"
"cpu-p-314.69077"
"cpu-p-314.69078"
"cpu-p-314.69079"
"cpu-p-314.69080"
"cpu-p-314.69081"
"cpu-p-314.69082"
"cpu-p-314.69083"
"cpu-p-314.69084"
"cpu-p-314.69085"
"cpu-p-314.69086"
"cpu-p-314.69087"
"cpu-p-314.69088"
"cpu-p-314.69089"
"cpu-p-314.69090"
"cpu-p-314.69091"
"cpu-p-314.69092"
"cpu-p-314.69093"
"cpu-p-314.69094"
"cpu-p-314.69095"
"cpu-p-314.69096"
"cpu-p-314.69097"
"cpu-p-314.69098"
"cpu-p-314.69099"
"cpu-p-314.69100"
"cpu-p-314.69101"
"cpu-p-314.69102"
"cpu-p-314.69103"
"cpu-p-314.69104"
"cpu-p-314.69105"
"cpu-p-314.69106"
"cpu-p-314.69107"
"cpu-p-314.69108"
"cpu-p-314.69109"
"cpu-p-314.69110"
"cpu-p-314.69111"
"cpu-p-314.69112"
"cpu-p-314.69113"
"cpu-p-314.69114"
"cpu-p-314.69115"
"cpu-p-314.69116"
"cpu-p-314.69117"
"cpu-p-314.69118"
"cpu-p-314.69119"
"cpu-p-314.69120"
"cpu-p-315.70197"
"cpu-p-315.70198"
"cpu-p-315.70199"
"cpu-p-315.70200"
"cpu-p-315.70201"
"cpu-p-315.70202"
"cpu-p-315.70203"
"cpu-p-315.70204"
"cpu-p-315.70205"
"cpu-p-315.70206"
"cpu-p-315.70207"
"cpu-p-315.70208"
"cpu-p-315.70209"
"cpu-p-315.70210"
"cpu-p-315.70211"
"cpu-p-315.70212"
"cpu-p-315.70213"
"cpu-p-315.70214"
"cpu-p-315.70215"
"cpu-p-315.70216"
"cpu-p-315.70217"
"cpu-p-315.70218"
"cpu-p-315.70219"
"cpu-p-315.70220"
"cpu-p-315.70221"
"cpu-p-315.70222"
"cpu-p-315.70223"
"cpu-p-315.70224"
"cpu-p-315.70225"
"cpu-p-315.70226"
"cpu-p-315.70227"
"cpu-p-315.70228"
"cpu-p-315.70229"
"cpu-p-315.70230"
"cpu-p-315.70231"
"cpu-p-315.70232"
"cpu-p-315.70233"
"cpu-p-315.70234"
"cpu-p-315.70235"
"cpu-p-315.70236"
"cpu-p-315.70237"
"cpu-p-315.70238"
"cpu-p-315.70239"
"cpu-p-315.70240"
"cpu-p-315.70241"
"cpu-p-315.70242"
"cpu-p-315.70243"
"cpu-p-315.70244"
"cpu-p-315.70245"
"cpu-p-315.70246"
"cpu-p-315.70247"
"cpu-p-315.70248"
"cpu-p-315.70249"
"cpu-p-315.70250"
"cpu-p-315.70251"
"cpu-p-315.70252"
"cpu-p-316.58789"
"cpu-p-316.58790"
"cpu-p-316.58791"
"cpu-p-316.58792"
"cpu-p-316.58793"
"cpu-p-316.58794"
"cpu-p-316.58795"
"cpu-p-316.58796"
"cpu-p-316.58797"
"cpu-p-316.58798"
"cpu-p-316.58799"
"cpu-p-316.58800"
"cpu-p-316.58801"
"cpu-p-316.58802"
"cpu-p-316.58803"
"cpu-p-316.58804"
"cpu-p-316.58805"
"cpu-p-316.58806"
"cpu-p-316.58807"
"cpu-p-316.58808"
"cpu-p-316.58809"
"cpu-p-316.58810"
"cpu-p-316.58811"
"cpu-p-316.58812"
"cpu-p-316.58813"
"cpu-p-316.58814"
"cpu-p-316.58815"
"cpu-p-316.58816"
"cpu-p-316.58817"
"cpu-p-316.58818"
"cpu-p-316.58819"
"cpu-p-316.58820"
"cpu-p-316.58821"
"cpu-p-316.58822"
"cpu-p-316.58823"
"cpu-p-316.58824"
"cpu-p-316.58825"
"cpu-p-316.58826"
"cpu-p-316.58827"
"cpu-p-316.58828"
"cpu-p-316.58829"
"cpu-p-316.58830"
"cpu-p-316.58831"
"cpu-p-316.58832"
"cpu-p-316.58833"
"cpu-p-316.58834"
"cpu-p-316.58835"
"cpu-p-316.58836"
"cpu-p-316.58837"
"cpu-p-316.58838"
"cpu-p-316.58839"
"cpu-p-316.58840"
"cpu-p-316.58841"
"cpu-p-316.58842"
"cpu-p-316.58843"
"cpu-p-316.58844"
"cpu-p-317.41632"
"cpu-p-317.41633"
"cpu-p-317.41634"
"cpu-p-317.41635"
"cpu-p-317.41636"
"cpu-p-317.41637"
"cpu-p-317.41638"
"cpu-p-317.41639"
"cpu-p-317.41640"
"cpu-p-317.41641"
"cpu-p-317.41642"
"cpu-p-317.41643"
"cpu-p-317.41644"
"cpu-p-317.41645"
"cpu-p-317.41646"
"cpu-p-317.41647"
"cpu-p-317.41648"
"cpu-p-317.41649"
"cpu-p-317.41650"
"cpu-p-317.41651"
"cpu-p-317.41652"
"cpu-p-317.41653"
"cpu-p-317.41654"
"cpu-p-317.41655"
"cpu-p-317.41656"
"cpu-p-317.41657"
"cpu-p-317.41658"
"cpu-p-317.41659"
"cpu-p-317.41660"
"cpu-p-317.41661"
"cpu-p-317.41662"
"cpu-p-317.41663"
"cpu-p-317.41664"
"cpu-p-317.41665"
"cpu-p-317.41666"
"cpu-p-317.41667"
"cpu-p-317.41668"
"cpu-p-317.41669"
"cpu-p-317.41670"
"cpu-p-317.41671"
"cpu-p-317.41672"
"cpu-p-317.41673"
"cpu-p-317.41674"
"cpu-p-317.41675"
"cpu-p-317.41676"
"cpu-p-317.41677"
"cpu-p-317.41678"
"cpu-p-317.41679"
"cpu-p-317.41680"
"cpu-p-317.41681"
"cpu-p-317.41682"
"cpu-p-317.41683"
"cpu-p-317.41684"
"cpu-p-317.41685"
"cpu-p-317.41686"
"cpu-p-317.41687"
"cpu-p-318.58046"
"cpu-p-318.58047"
"cpu-p-318.58048"
"cpu-p-318.58049"
"cpu-p-318.58050"
"cpu-p-318.58051"
"cpu-p-318.58052"
"cpu-p-318.58053"
"cpu-p-318.58054"
"cpu-p-318.58055"
"cpu-p-318.58056"
"cpu-p-318.58057"
"cpu-p-318.58058"
"cpu-p-318.58059"
"cpu-p-318.58060"
"cpu-p-318.58061"
"cpu-p-318.58062"
"cpu-p-318.58063"
"cpu-p-318.58064"
"cpu-p-318.58065"
"cpu-p-318.58066"
"cpu-p-318.58067"
"cpu-p-318.58068"
"cpu-p-318.58069"
"cpu-p-318.58070"
"cpu-p-318.58071"
"cpu-p-318.58072"
"cpu-p-318.58073"
"cpu-p-318.58074"
"cpu-p-318.58075"
"cpu-p-318.58076"
"cpu-p-318.58077"
"cpu-p-318.58078"
"cpu-p-318.58079"
"cpu-p-318.58080"
"cpu-p-318.58081"
"cpu-p-318.58082"
"cpu-p-318.58083"
"cpu-p-318.58084"
"cpu-p-318.58085"
"cpu-p-318.58086"
"cpu-p-318.58087"
"cpu-p-318.58088"
"cpu-p-318.58089"
"cpu-p-318.58090"
"cpu-p-318.58091"
"cpu-p-318.58092"
"cpu-p-318.58093"
"cpu-p-318.58094"
"cpu-p-318.58095"
"cpu-p-318.58096"
"cpu-p-318.58097"
"cpu-p-318.58098"
"cpu-p-318.58099"
"cpu-p-318.58100"
"cpu-p-318.58101"
"cpu-p-319.49399"
"cpu-p-319.49400"
"cpu-p-319.49401"
"cpu-p-319.49402"
"cpu-p-319.49403"
"cpu-p-319.49404"
"cpu-p-319.49405"
"cpu-p-319.49406"
"cpu-p-319.49407"
"cpu-p-319.49408"
"cpu-p-319.49409"
"cpu-p-319.49410"
"cpu-p-319.49411"
"cpu-p-319.49412"
"cpu-p-319.49413"
"cpu-p-319.49414"
"cpu-p-319.49415"
"cpu-p-319.49416"
"cpu-p-319.49417"
"cpu-p-319.49418"
"cpu-p-319.49419"
"cpu-p-319.49420"
"cpu-p-319.49421"
"cpu-p-319.49422"
"cpu-p-319.49423"
"cpu-p-319.49424"
"cpu-p-319.49425"
"cpu-p-319.49426"
"cpu-p-319.49427"
"cpu-p-319.49428"
"cpu-p-319.49429"
"cpu-p-319.49430"
"cpu-p-319.49431"
"cpu-p-319.49432"
"cpu-p-319.49433"
"cpu-p-319.49434"
"cpu-p-319.49435"
"cpu-p-319.49436"
"cpu-p-319.49437"
"cpu-p-319.49438"
"cpu-p-319.49439"
"cpu-p-319.49440"
"cpu-p-319.49441"
"cpu-p-319.49442"
"cpu-p-319.49443"
"cpu-p-319.49444"
"cpu-p-319.49445"
"cpu-p-319.49446"
"cpu-p-319.49447"
"cpu-p-319.49448"
"cpu-p-319.49449"
"cpu-p-319.49450"
"cpu-p-319.49451"
"cpu-p-319.49452"
"cpu-p-319.49453"
"cpu-p-319.49454"
"cpu-p-320.48630"
"cpu-p-320.48631"
"cpu-p-320.48632"
"cpu-p-320.48633"
"cpu-p-320.48634"
"cpu-p-320.48635"
"cpu-p-320.48636"
"cpu-p-320.48637"
"cpu-p-320.48638"
"cpu-p-320.48639"
"cpu-p-320.48640"
"cpu-p-320.48641"
"cpu-p-320.48642"
"cpu-p-320.48643"
"cpu-p-320.48644"
"cpu-p-320.48645"
"cpu-p-320.48646"
"cpu-p-320.48647"
"cpu-p-320.48648"
"cpu-p-320.48649"
"cpu-p-320.48650"
"cpu-p-320.48651"
"cpu-p-320.48652"
"cpu-p-320.48653"
"cpu-p-320.48654"
"cpu-p-320.48655"
"cpu-p-320.48656"
"cpu-p-320.48657"
"cpu-p-320.48658"
"cpu-p-320.48659"
"cpu-p-320.48660"
"cpu-p-320.48661"
"cpu-p-320.48662"
"cpu-p-320.48663"
"cpu-p-320.48664"
"cpu-p-320.48665"
"cpu-p-320.48666"
"cpu-p-320.48667"
"cpu-p-320.48668"
"cpu-p-320.48669"
"cpu-p-320.48670"
"cpu-p-320.48671"
"cpu-p-320.48672"
"cpu-p-320.48673"
"cpu-p-320.48674"
"cpu-p-320.48675"
"cpu-p-320.48676"
"cpu-p-320.48677"
"cpu-p-320.48678"
"cpu-p-320.48679"
"cpu-p-320.48680"
"cpu-p-320.48681"
"cpu-p-320.48682"
"cpu-p-320.48683"
"cpu-p-320.48684"
"cpu-p-320.48685"
"cpu-p-321.119963"
"cpu-p-321.119964"
"cpu-p-321.119965"
"cpu-p-321.119966"
"cpu-p-321.119967"
"cpu-p-321.119968"
"cpu-p-321.119969"
"cpu-p-321.119970"
"cpu-p-321.119971"
"cpu-p-321.119972"
"cpu-p-321.119973"
"cpu-p-321.119974"
"cpu-p-321.119975"
"cpu-p-321.119976"
"cpu-p-321.119977"
"cpu-p-321.119978"
"cpu-p-321.119979"
"cpu-p-321.119980"
"cpu-p-321.119981"
"cpu-p-321.119982"
"cpu-p-321.119983"
"cpu-p-321.119984"
"cpu-p-321.119985"
"cpu-p-321.119986"
"cpu-p-321.119987"
"cpu-p-321.119988"
"cpu-p-321.119989"
"cpu-p-321.119990"
"cpu-p-321.119991"
"cpu-p-321.119992"
"cpu-p-321.119993"
"cpu-p-321.119994"
"cpu-p-321.119995"
"cpu-p-321.119996"
"cpu-p-321.119997"
"cpu-p-321.119998"
"cpu-p-321.119999"
"cpu-p-321.120000"
"cpu-p-321.120001"
"cpu-p-321.120002"
"cpu-p-321.120003"
"cpu-p-321.120004"
"cpu-p-321.120005"
"cpu-p-321.120006"
"cpu-p-321.120007"
"cpu-p-321.120008"
"cpu-p-321.120009"
"cpu-p-321.120010"
"cpu-p-321.120011"
"cpu-p-321.120012"
"cpu-p-321.120013"
"cpu-p-321.120014"
"cpu-p-321.120015"
"cpu-p-321.120016"
"cpu-p-321.120017"
"cpu-p-321.120018"
"cpu-p-322.113400"
"cpu-p-322.113401"
"cpu-p-322.113402"
"cpu-p-322.113403"
"cpu-p-322.113404"
"cpu-p-322.113405"
"cpu-p-322.113406"
"cpu-p-322.113407"
"cpu-p-322.113408"
"cpu-p-322.113409"
"cpu-p-322.113410"
"cpu-p-322.113411"
"cpu-p-322.113412"
"cpu-p-322.113413"
"cpu-p-322.113414"
"cpu-p-322.113415"
"cpu-p-322.113416"
"cpu-p-322.113417"
"cpu-p-322.113418"
"cpu-p-322.113419"
"cpu-p-322.113420"
"cpu-p-322.113421"
"cpu-p-322.113422"
"cpu-p-322.113423"
"cpu-p-322.113424"
"cpu-p-322.113425"
"cpu-p-322.113426"
"cpu-p-322.113427"
"cpu-p-322.113428"
"cpu-p-322.113429"
"cpu-p-322.113430"
"cpu-p-322.113431"
"cpu-p-322.113432"
"cpu-p-322.113433"
"cpu-p-322.113434"
"cpu-p-322.113435"
"cpu-p-322.113436"
"cpu-p-322.113437"
"cpu-p-322.113438"
"cpu-p-322.113439"
"cpu-p-322.113440"
"cpu-p-322.113441"
"cpu-p-322.113442"
"cpu-p-322.113443"
"cpu-p-322.113444"
"cpu-p-322.113445"
"cpu-p-322.113446"
"cpu-p-322.113447"
"cpu-p-322.113448"
"cpu-p-322.113449"
"cpu-p-322.113450"
"cpu-p-322.113451"
"cpu-p-322.113452"
"cpu-p-322.113453"
"cpu-p-322.113454"
"cpu-p-322.113455"
"cpu-p-323.117004"
"cpu-p-323.117005"
"cpu-p-323.117006"
"cpu-p-323.117007"
"cpu-p-323.117008"
"cpu-p-323.117009"
"cpu-p-323.117010"
"cpu-p-323.117011"
"cpu-p-323.117012"
"cpu-p-323.117013"
"cpu-p-323.117014"
"cpu-p-323.117015"
"cpu-p-323.117016"
"cpu-p-323.117017"
"cpu-p-323.117018"
"cpu-p-323.117019"
"cpu-p-323.117020"
"cpu-p-323.117021"
"cpu-p-323.117022"
"cpu-p-323.117023"
"cpu-p-323.117024"
"cpu-p-323.117025"
"cpu-p-323.117026"
"cpu-p-323.117027"
"cpu-p-323.117028"
"cpu-p-323.117029"
"cpu-p-323.117030"
"cpu-p-323.117031"
"cpu-p-323.117032"
"cpu-p-323.117033"
"cpu-p-323.117034"
"cpu-p-323.117035"
"cpu-p-323.117036"
"cpu-p-323.117037"
"cpu-p-323.117038"
"cpu-p-323.117039"
"cpu-p-323.117040"
"cpu-p-323.117041"
"cpu-p-323.117042"
"cpu-p-323.117043"
"cpu-p-323.117044"
"cpu-p-323.117045"
"cpu-p-323.117046"
"cpu-p-323.117047"
"cpu-p-323.117048"
"cpu-p-323.117049"
"cpu-p-323.117050"
"cpu-p-323.117051"
"cpu-p-323.117052"
"cpu-p-323.117053"
"cpu-p-323.117054"
"cpu-p-323.117055"
"cpu-p-323.117056"
"cpu-p-323.117057"
"cpu-p-323.117058"
"cpu-p-323.117059"
"cpu-p-324.99989"
"cpu-p-324.99990"
"cpu-p-324.99991"
"cpu-p-324.99992"
"cpu-p-324.99993"
"cpu-p-324.99994"
"cpu-p-324.99995"
"cpu-p-324.99996"
"cpu-p-324.99997"
"cpu-p-324.99998"
"cpu-p-324.99999"
"cpu-p-324.100000"
"cpu-p-324.100001"
"cpu-p-324.100002"
"cpu-p-324.100003"
"cpu-p-324.100004"
"cpu-p-324.100005"
"cpu-p-324.100006"
"cpu-p-324.100007"
"cpu-p-324.100008"
"cpu-p-324.100009"
"cpu-p-324.100010"
"cpu-p-324.100011"
"cpu-p-324.100012"
"cpu-p-324.100013"
"cpu-p-324.100014"
"cpu-p-324.100015"
"cpu-p-324.100016"
"cpu-p-324.100017"
"cpu-p-324.100018"
"cpu-p-324.100019"
"cpu-p-324.100020"
"cpu-p-324.100021"
"cpu-p-324.100022"
"cpu-p-324.100023"
"cpu-p-324.100024"
"cpu-p-324.100025"
"cpu-p-324.100026"
"cpu-p-324.100027"
"cpu-p-324.100028"
"cpu-p-324.100029"
"cpu-p-324.100030"
"cpu-p-324.100031"
"cpu-p-324.100032"
"cpu-p-324.100033"
"cpu-p-324.100034"
"cpu-p-324.100035"
"cpu-p-324.100036"
"cpu-p-324.100037"
"cpu-p-324.100038"
"cpu-p-324.100039"
"cpu-p-324.100040"
"cpu-p-324.100041"
"cpu-p-324.100042"
"cpu-p-324.100043"
"cpu-p-324.100044"
"cpu-p-325.23569"
"cpu-p-325.23570"
"cpu-p-325.23571"
"cpu-p-325.23572"
"cpu-p-325.23573"
"cpu-p-325.23574"
"cpu-p-325.23575"
"cpu-p-325.23576"
"cpu-p-325.23577"
"cpu-p-325.23578"
"cpu-p-325.23579"
"cpu-p-325.23580"
"cpu-p-325.23581"
"cpu-p-325.23582"
"cpu-p-325.23583"
"cpu-p-325.23584"
"cpu-p-325.23585"
"cpu-p-325.23586"
"cpu-p-325.23587"
"cpu-p-325.23588"
"cpu-p-325.23589"
"cpu-p-325.23590"
"cpu-p-325.23591"
"cpu-p-325.23592"
"cpu-p-325.23593"
"cpu-p-325.23594"
"cpu-p-325.23595"
"cpu-p-325.23596"
"cpu-p-325.23597"
"cpu-p-325.23598"
"cpu-p-325.23599"
"cpu-p-325.23600"
"cpu-p-325.23601"
"cpu-p-325.23602"
"cpu-p-325.23603"
"cpu-p-325.23604"
"cpu-p-325.23605"
"cpu-p-325.23606"
"cpu-p-325.23607"
"cpu-p-325.23608"
"cpu-p-325.23609"
"cpu-p-325.23610"
"cpu-p-325.23611"
"cpu-p-325.23612"
"cpu-p-325.23613"
"cpu-p-325.23614"
"cpu-p-325.23615"
"cpu-p-325.23616"
"cpu-p-325.23617"
"cpu-p-325.23618"
"cpu-p-325.23619"
"cpu-p-325.23620"
"cpu-p-325.23621"
"cpu-p-325.23622"
"cpu-p-325.23623"
"cpu-p-325.23624"
"cpu-p-326.16430"
"cpu-p-326.16431"
"cpu-p-326.16432"
"cpu-p-326.16433"
"cpu-p-326.16434"
"cpu-p-326.16435"
"cpu-p-326.16436"
"cpu-p-326.16437"
"cpu-p-326.16438"
"cpu-p-326.16439"
"cpu-p-326.16440"
"cpu-p-326.16441"
"cpu-p-326.16442"
"cpu-p-326.16443"
"cpu-p-326.16444"
"cpu-p-326.16445"
"cpu-p-326.16446"
"cpu-p-326.16447"
"cpu-p-326.16448"
"cpu-p-326.16449"
"cpu-p-326.16450"
"cpu-p-326.16451"
"cpu-p-326.16452"
"cpu-p-326.16453"
"cpu-p-326.16454"
"cpu-p-326.16455"
"cpu-p-326.16456"
"cpu-p-326.16457"
"cpu-p-326.16458"
"cpu-p-326.16459"
"cpu-p-326.16460"
"cpu-p-326.16461"
"cpu-p-326.16462"
"cpu-p-326.16463"
"cpu-p-326.16464"
"cpu-p-326.16465"
"cpu-p-326.16466"
"cpu-p-326.16467"
"cpu-p-326.16468"
"cpu-p-326.16469"
"cpu-p-326.16470"
"cpu-p-326.16471"
"cpu-p-326.16472"
"cpu-p-326.16473"
"cpu-p-326.16474"
"cpu-p-326.16475"
"cpu-p-326.16476"
"cpu-p-326.16477"
"cpu-p-326.16478"
"cpu-p-326.16479"
"cpu-p-326.16480"
"cpu-p-326.16481"
"cpu-p-326.16482"
"cpu-p-326.16483"
"cpu-p-326.16484"
"cpu-p-326.16485"
"cpu-p-327.42444"
"cpu-p-327.42445"
"cpu-p-327.42446"
"cpu-p-327.42447"
"cpu-p-327.42448"
"cpu-p-327.42449"
"cpu-p-327.42450"
"cpu-p-327.42451"
"cpu-p-327.42452"
"cpu-p-327.42453"
"cpu-p-327.42454"
"cpu-p-327.42455"
"cpu-p-327.42456"
"cpu-p-327.42457"
"cpu-p-327.42458"
"cpu-p-327.42459"
"cpu-p-327.42460"
"cpu-p-327.42461"
"cpu-p-327.42462"
"cpu-p-327.42463"
"cpu-p-327.42464"
"cpu-p-327.42465"
"cpu-p-327.42466"
"cpu-p-327.42467"
"cpu-p-327.42468"
"cpu-p-327.42469"
"cpu-p-327.42470"
"cpu-p-327.42471"
"cpu-p-327.42472"
"cpu-p-327.42473"
"cpu-p-327.42474"
"cpu-p-327.42475"
"cpu-p-327.42476"
"cpu-p-327.42477"
"cpu-p-327.42478"
"cpu-p-327.42479"
"cpu-p-327.42480"
"cpu-p-327.42481"
"cpu-p-327.42482"
"cpu-p-327.42483"
"cpu-p-327.42484"
"cpu-p-327.42485"
"cpu-p-327.42486"
"cpu-p-327.42487"
"cpu-p-327.42488"
"cpu-p-327.42489"
"cpu-p-327.42490"
"cpu-p-327.42491"
"cpu-p-327.42492"
"cpu-p-327.42493"
"cpu-p-327.42494"
"cpu-p-327.42495"
"cpu-p-327.42496"
"cpu-p-327.42497"
"cpu-p-327.42498"
"cpu-p-327.42499"
"cpu-p-328.32377"
"cpu-p-328.32378"
"cpu-p-328.32379"
"cpu-p-328.32380"
"cpu-p-328.32381"
"cpu-p-328.32382"
"cpu-p-328.32383"
"cpu-p-328.32384"
"cpu-p-328.32385"
"cpu-p-328.32386"
"cpu-p-328.32387"
"cpu-p-328.32388"
"cpu-p-328.32389"
"cpu-p-328.32390"
"cpu-p-328.32391"
"cpu-p-328.32392"
"cpu-p-328.32393"
"cpu-p-328.32394"
"cpu-p-328.32395"
"cpu-p-328.32396"
"cpu-p-328.32397"
"cpu-p-328.32398"
"cpu-p-328.32399"
"cpu-p-328.32400"
"cpu-p-328.32401"
"cpu-p-328.32402"
"cpu-p-328.32403"
"cpu-p-328.32404"
"cpu-p-328.32405"
"cpu-p-328.32406"
"cpu-p-328.32407"
"cpu-p-328.32408"
"cpu-p-328.32409"
"cpu-p-328.32410"
"cpu-p-328.32411"
"cpu-p-328.32412"
"cpu-p-328.32413"
"cpu-p-328.32414"
"cpu-p-328.32415"
"cpu-p-328.32416"
"cpu-p-328.32417"
"cpu-p-328.32418"
"cpu-p-328.32419"
"cpu-p-328.32420"
"cpu-p-328.32421"
"cpu-p-328.32422"
"cpu-p-328.32423"
"cpu-p-328.32424"
"cpu-p-328.32425"
"cpu-p-328.32426"
"cpu-p-328.32427"
"cpu-p-328.32428"
"cpu-p-328.32429"
"cpu-p-328.32430"
"cpu-p-328.32431"
"cpu-p-328.32432"
"cpu-p-329.30018"
"cpu-p-329.30019"
"cpu-p-329.30020"
"cpu-p-329.30021"
"cpu-p-329.30022"
"cpu-p-329.30023"
"cpu-p-329.30024"
"cpu-p-329.30025"
"cpu-p-329.30026"
"cpu-p-329.30027"
"cpu-p-329.30028"
"cpu-p-329.30029"
"cpu-p-329.30030"
"cpu-p-329.30031"
"cpu-p-329.30032"
"cpu-p-329.30033"
"cpu-p-329.30034"
"cpu-p-329.30035"
"cpu-p-329.30036"
"cpu-p-329.30037"
"cpu-p-329.30038"
"cpu-p-329.30039"
"cpu-p-329.30040"
"cpu-p-329.30041"
"cpu-p-329.30042"
"cpu-p-329.30043"
"cpu-p-329.30044"
"cpu-p-329.30045"
"cpu-p-329.30046"
"cpu-p-329.30047"
"cpu-p-329.30048"
"cpu-p-329.30049"
"cpu-p-329.30050"
"cpu-p-329.30051"
"cpu-p-329.30052"
"cpu-p-329.30053"
"cpu-p-329.30054"
"cpu-p-329.30055"
"cpu-p-329.30056"
"cpu-p-329.30057"
"cpu-p-329.30058"
"cpu-p-329.30059"
"cpu-p-329.30060"
"cpu-p-329.30061"
"cpu-p-329.30062"
"cpu-p-329.30063"
"cpu-p-329.30064"
"cpu-p-329.30065"
"cpu-p-329.30066"
"cpu-p-329.30067"
"cpu-p-329.30068"
"cpu-p-329.30069"
"cpu-p-329.30070"
"cpu-p-329.30071"
"cpu-p-329.30072"
"cpu-p-329.30073"
"cpu-p-330.28032"
"cpu-p-330.28033"
"cpu-p-330.28034"
"cpu-p-330.28035"
"cpu-p-330.28036"
"cpu-p-330.28037"
"cpu-p-330.28038"
"cpu-p-330.28039"
"cpu-p-330.28040"
"cpu-p-330.28041"
"cpu-p-330.28042"
"cpu-p-330.28043"
"cpu-p-330.28044"
"cpu-p-330.28045"
"cpu-p-330.28046"
"cpu-p-330.28047"
"cpu-p-330.28048"
"cpu-p-330.28049"
"cpu-p-330.28050"
"cpu-p-330.28051"
"cpu-p-330.28052"
"cpu-p-330.28053"
"cpu-p-330.28054"
"cpu-p-330.28055"
"cpu-p-330.28056"
"cpu-p-330.28057"
"cpu-p-330.28058"
"cpu-p-330.28059"
"cpu-p-330.28060"
"cpu-p-330.28061"
"cpu-p-330.28062"
"cpu-p-330.28063"
"cpu-p-330.28064"
"cpu-p-330.28065"
"cpu-p-330.28066"
"cpu-p-330.28067"
"cpu-p-330.28068"
"cpu-p-330.28069"
"cpu-p-330.28070"
"cpu-p-330.28071"
"cpu-p-330.28072"
"cpu-p-330.28073"
"cpu-p-330.28074"
"cpu-p-330.28075"
"cpu-p-330.28076"
"cpu-p-330.28077"
"cpu-p-330.28078"
"cpu-p-330.28079"
"cpu-p-330.28080"
"cpu-p-330.28081"
"cpu-p-330.28082"
"cpu-p-330.28083"
"cpu-p-330.28084"
"cpu-p-330.28085"
"cpu-p-330.28086"
"cpu-p-330.28087"
"cpu-p-331.12745"
"cpu-p-331.12746"
"cpu-p-331.12747"
"cpu-p-331.12748"
"cpu-p-331.12749"
"cpu-p-331.12750"
"cpu-p-331.12751"
"cpu-p-331.12752"
"cpu-p-331.12753"
"cpu-p-331.12754"
"cpu-p-331.12755"
"cpu-p-331.12756"
"cpu-p-331.12757"
"cpu-p-331.12758"
"cpu-p-331.12759"
"cpu-p-331.12760"
"cpu-p-331.12761"
"cpu-p-331.12762"
"cpu-p-331.12763"
"cpu-p-331.12764"
"cpu-p-331.12765"
"cpu-p-331.12766"
"cpu-p-331.12767"
"cpu-p-331.12768"
"cpu-p-331.12769"
"cpu-p-331.12770"
"cpu-p-331.12771"
"cpu-p-331.12772"
"cpu-p-331.12773"
"cpu-p-331.12774"
"cpu-p-331.12775"
"cpu-p-331.12776"
"cpu-p-331.12777"
"cpu-p-331.12778"
"cpu-p-331.12779"
"cpu-p-331.12780"
"cpu-p-331.12781"
"cpu-p-331.12782"
"cpu-p-331.12783"
"cpu-p-331.12784"
"cpu-p-331.12785"
"cpu-p-331.12786"
"cpu-p-331.12787"
"cpu-p-331.12788"
"cpu-p-331.12789"
"cpu-p-331.12790"
"cpu-p-331.12791"
"cpu-p-331.12792"
"cpu-p-331.12793"
"cpu-p-331.12794"
"cpu-p-331.12795"
"cpu-p-331.12796"
"cpu-p-331.12797"
"cpu-p-331.12798"
"cpu-p-331.12799"
"cpu-p-331.12800"
"cpu-p-332.23409"
"cpu-p-332.23410"
"cpu-p-332.23411"
"cpu-p-332.23412"
"cpu-p-332.23413"
"cpu-p-332.23414"
"cpu-p-332.23415"
"cpu-p-332.23416"
"cpu-p-332.23417"
"cpu-p-332.23418"
"cpu-p-332.23419"
"cpu-p-332.23420"
"cpu-p-332.23421"
"cpu-p-332.23422"
"cpu-p-332.23423"
"cpu-p-332.23424"
"cpu-p-332.23425"
"cpu-p-332.23426"
"cpu-p-332.23427"
"cpu-p-332.23428"
"cpu-p-332.23429"
"cpu-p-332.23430"
"cpu-p-332.23431"
"cpu-p-332.23432"
"cpu-p-332.23433"
"cpu-p-332.23434"
"cpu-p-332.23435"
"cpu-p-332.23436"
"cpu-p-332.23437"
"cpu-p-332.23438"
"cpu-p-332.23439"
"cpu-p-332.23440"
"cpu-p-332.23441"
"cpu-p-332.23442"
"cpu-p-332.23443"
"cpu-p-332.23444"
"cpu-p-332.23445"
"cpu-p-332.23446"
"cpu-p-332.23447"
"cpu-p-332.23448"
"cpu-p-332.23449"
"cpu-p-332.23450"
"cpu-p-332.23451"
"cpu-p-332.23452"
"cpu-p-332.23453"
"cpu-p-332.23454"
"cpu-p-332.23455"
"cpu-p-332.23456"
"cpu-p-332.23457"
"cpu-p-332.23458"
"cpu-p-332.23459"
"cpu-p-332.23460"
"cpu-p-332.23461"
"cpu-p-332.23462"
"cpu-p-332.23463"
"cpu-p-332.23464"
"cpu-p-333.33499"
"cpu-p-333.33500"
"cpu-p-333.33501"
"cpu-p-333.33502"
"cpu-p-333.33503"
"cpu-p-333.33504"
"cpu-p-333.33505"
"cpu-p-333.33506"
"cpu-p-333.33507"
"cpu-p-333.33508"
"cpu-p-333.33509"
"cpu-p-333.33510"
"cpu-p-333.33511"
"cpu-p-333.33512"
"cpu-p-333.33513"
"cpu-p-333.33514"
"cpu-p-333.33515"
"cpu-p-333.33516"
"cpu-p-333.33517"
"cpu-p-333.33518"
"cpu-p-333.33519"
"cpu-p-333.33520"
"cpu-p-333.33521"
"cpu-p-333.33522"
"cpu-p-333.33523"
"cpu-p-333.33524"
"cpu-p-333.33525"
"cpu-p-333.33526"
"cpu-p-333.33527"
"cpu-p-333.33528"
"cpu-p-333.33529"
"cpu-p-333.33530"
"cpu-p-333.33531"
"cpu-p-333.33532"
"cpu-p-333.33533"
"cpu-p-333.33534"
"cpu-p-333.33535"
"cpu-p-333.33536"
"cpu-p-333.33537"
"cpu-p-333.33538"
"cpu-p-333.33539"
"cpu-p-333.33540"
"cpu-p-333.33541"
"cpu-p-333.33542"
"cpu-p-333.33543"
"cpu-p-333.33544"
"cpu-p-333.33545"
"cpu-p-333.33546"
"cpu-p-333.33547"
"cpu-p-333.33548"
"cpu-p-333.33549"
"cpu-p-333.33550"
"cpu-p-333.33551"
"cpu-p-333.33552"
"cpu-p-333.33553"
"cpu-p-333.33554"
"cpu-p-334.24771"
"cpu-p-334.24772"
"cpu-p-334.24773"
"cpu-p-334.24774"
"cpu-p-334.24775"
"cpu-p-334.24776"
"cpu-p-334.24777"
"cpu-p-334.24778"
"cpu-p-334.24779"
"cpu-p-334.24780"
"cpu-p-334.24781"
"cpu-p-334.24782"
"cpu-p-334.24783"
"cpu-p-334.24784"
"cpu-p-334.24785"
"cpu-p-334.24786"
"cpu-p-334.24787"
"cpu-p-334.24788"
"cpu-p-334.24789"
"cpu-p-334.24790"
"cpu-p-334.24791"
"cpu-p-334.24792"
"cpu-p-334.24793"
"cpu-p-334.24794"
"cpu-p-334.24795"
"cpu-p-334.24796"
"cpu-p-334.24797"
"cpu-p-334.24798"
"cpu-p-334.24799"
"cpu-p-334.24800"
"cpu-p-334.24801"
"cpu-p-334.24802"
"cpu-p-334.24803"
"cpu-p-334.24804"
"cpu-p-334.24805"
"cpu-p-334.24806"
"cpu-p-334.24807"
"cpu-p-334.24808"
"cpu-p-334.24809"
"cpu-p-334.24810"
"cpu-p-334.24811"
"cpu-p-334.24812"
"cpu-p-334.24813"
"cpu-p-334.24814"
"cpu-p-334.24815"
"cpu-p-334.24816"
"cpu-p-334.24817"
"cpu-p-334.24818"
"cpu-p-334.24819"
"cpu-p-334.24820"
"cpu-p-334.24821"
"cpu-p-334.24822"
"cpu-p-334.24823"
"cpu-p-334.24824"
"cpu-p-334.24825"
"cpu-p-334.24826"
"cpu-p-335.30400"
"cpu-p-335.30401"
"cpu-p-335.30402"
"cpu-p-335.30403"
"cpu-p-335.30404"
"cpu-p-335.30405"
"cpu-p-335.30406"
"cpu-p-335.30407"
"cpu-p-335.30408"
"cpu-p-335.30409"
"cpu-p-335.30410"
"cpu-p-335.30411"
"cpu-p-335.30412"
"cpu-p-335.30413"
"cpu-p-335.30414"
"cpu-p-335.30415"
"cpu-p-335.30416"
"cpu-p-335.30417"
"cpu-p-335.30418"
"cpu-p-335.30419"
"cpu-p-335.30420"
"cpu-p-335.30421"
"cpu-p-335.30422"
"cpu-p-335.30423"
"cpu-p-335.30424"
"cpu-p-335.30425"
"cpu-p-335.30426"
"cpu-p-335.30427"
"cpu-p-335.30428"
"cpu-p-335.30429"
"cpu-p-335.30430"
"cpu-p-335.30431"
"cpu-p-335.30432"
"cpu-p-335.30433"
"cpu-p-335.30434"
"cpu-p-335.30435"
"cpu-p-335.30436"
"cpu-p-335.30437"
"cpu-p-335.30438"
"cpu-p-335.30439"
"cpu-p-335.30440"
"cpu-p-335.30441"
"cpu-p-335.30442"
"cpu-p-335.30443"
"cpu-p-335.30444"
"cpu-p-335.30445"
"cpu-p-335.30446"
"cpu-p-335.30447"
"cpu-p-335.30448"
"cpu-p-335.30449"
"cpu-p-335.30450"
"cpu-p-335.30451"
"cpu-p-335.30452"
"cpu-p-335.30453"
"cpu-p-335.30454"
"cpu-p-335.30455"
"cpu-p-336.22338"
"cpu-p-336.22339"
"cpu-p-336.22340"
"cpu-p-336.22341"
"cpu-p-336.22342"
"cpu-p-336.22343"
"cpu-p-336.22344"
"cpu-p-336.22345"
"cpu-p-336.22346"
"cpu-p-336.22347"
"cpu-p-336.22348"
"cpu-p-336.22349"
"cpu-p-336.22350"
"cpu-p-336.22351"
"cpu-p-336.22352"
"cpu-p-336.22353"
"cpu-p-336.22354"
"cpu-p-336.22355"
"cpu-p-336.22356"
"cpu-p-336.22357"
"cpu-p-336.22358"
"cpu-p-336.22359"
"cpu-p-336.22360"
"cpu-p-336.22361"
"cpu-p-336.22362"
"cpu-p-336.22363"
"cpu-p-336.22364"
"cpu-p-336.22365"
"cpu-p-336.22366"
"cpu-p-336.22367"
"cpu-p-336.22368"
"cpu-p-336.22369"
"cpu-p-336.22370"
"cpu-p-336.22371"
"cpu-p-336.22372"
"cpu-p-336.22373"
"cpu-p-336.22374"
"cpu-p-336.22375"
"cpu-p-336.22376"
"cpu-p-336.22377"
"cpu-p-336.22378"
"cpu-p-336.22379"
"cpu-p-336.22380"
"cpu-p-336.22381"
"cpu-p-336.22382"
"cpu-p-336.22383"
"cpu-p-336.22384"
"cpu-p-336.22385"
"cpu-p-336.22386"
"cpu-p-336.22387"
"cpu-p-336.22388"
"cpu-p-336.22389"
"cpu-p-336.22390"
"cpu-p-336.22391"
"cpu-p-336.22392"
"cpu-p-336.22393"
)

Pstream initialized with:
    floatTransfer      : 0
    nProcsSimpleSum    : 0
    commsType          : nonBlocking
    polling iterations : 0
sigFpe : Enabling floating point exception trapping (FOAM_SIGFPE).
fileModificationChecking : Monitoring run-time modified files using timeStampMaster (fileModificationSkew 10)
allowSystemOperations : Allowing user-supplied system call operations

// * * * * * * * * * * * * * * * * * * * * * * * * * * * * * * * * * * * * * //
Create time

Create mesh for time = 0


SIMPLE: No convergence criteria found

Reading field p

Reading field U

Reading/calculating face flux field phi

Selecting incompressible transport model Newtonian
Selecting turbulence model type RAS
Selecting RAS turbulence model kOmegaSST
Selecting patchDistMethod meshWave
RAS
{
    RASModel        kOmegaSST;
    turbulence      on;
    printCoeffs     on;
    alphaK1         0.85;
    alphaK2         1;
    alphaOmega1     0.5;
    alphaOmega2     0.856;
    gamma1          0.555556;
    gamma2          0.44;
    beta1           0.075;
    beta2           0.0828;
    betaStar        0.09;
    a1              0.31;
    b1              1;
    c1              10;
    F3              false;
}

No MRF models present

No finite volume options present

Starting time loop

Reading surface description:
    yNormal

forces forceCoeffs1:
    Not including porosity effects
forceCoeffs forceCoeffs1:
    Not including porosity effects
Time = 1

smoothSolver:  Solving for Ux, Initial residual = 1, Final residual = 0.0947934, No Iterations 14
smoothSolver:  Solving for Uy, Initial residual = 1, Final residual = 0.0863285, No Iterations 13
smoothSolver:  Solving for Uz, Initial residual = 1, Final residual = 0.0966268, No Iterations 13
GAMG:  Solving for p, Initial residual = 1, Final residual = 0.00898907, No Iterations 6
time step continuity errors : sum local = 0.000636423, global = 4.78122e-06, cumulative = 4.78122e-06
smoothSolver:  Solving for omega, Initial residual = 0.0280874, Final residual = 0.00147188, No Iterations 3
bounding omega, min: -2182.54 max: 71305.3 average: 490.071
smoothSolver:  Solving for k, Initial residual = 1, Final residual = 0.077689, No Iterations 4
ExecutionTime = 7.9 s  ClockTime = 9 s

forceCoeffs forceCoeffs1 write:
    Cm    = 12.3981
    Cd    = 26.8076
    Cl    = -1.81449
    Cl(f) = 11.4908
    Cl(r) = -13.3053

Time = 2

smoothSolver:  Solving for Ux, Initial residual = 0.107195, Final residual = 0.00972005, No Iterations 12
smoothSolver:  Solving for Uy, Initial residual = 0.51817, Final residual = 0.0515916, No Iterations 11
smoothSolver:  Solving for Uz, Initial residual = 0.393702, Final residual = 0.0382374, No Iterations 11
GAMG:  Solving for p, Initial residual = 0.232407, Final residual = 0.00214634, No Iterations 4
time step continuity errors : sum local = 0.00960117, global = 2.3934e-05, cumulative = 2.87152e-05
smoothSolver:  Solving for omega, Initial residual = 1, Final residual = 0.0726942, No Iterations 4
smoothSolver:  Solving for k, Initial residual = 0.970331, Final residual = 6.03258e-09, No Iterations 1
ExecutionTime = 7.97 s  ClockTime = 9 s

forceCoeffs forceCoeffs1 write:
    Cm    = 4.77963
    Cd    = 10.9233
    Cl    = -0.382482
    Cl(f) = 4.58839
    Cl(r) = -4.97087

Time = 3

smoothSolver:  Solving for Ux, Initial residual = 0.143395, Final residual = 0.0120879, No Iterations 5
smoothSolver:  Solving for Uy, Initial residual = 0.570536, Final residual = 0.0439906, No Iterations 6
smoothSolver:  Solving for Uz, Initial residual = 0.633665, Final residual = 0.0508597, No Iterations 5
GAMG:  Solving for p, Initial residual = 0.146799, Final residual = 0.000822941, No Iterations 5
time step continuity errors : sum local = 0.00291098, global = 2.54842e-05, cumulative = 5.41994e-05
smoothSolver:  Solving for omega, Initial residual = 0.538466, Final residual = 8.66627e-14, No Iterations 1
bounding omega, min: -1.82058e+08 max: 7.60781e+16 average: 1.57863e+11
smoothSolver:  Solving for k, Initial residual = 0.115417, Final residual = 7.38609e-09, No Iterations 1
ExecutionTime = 8.03 s  ClockTime = 9 s

forceCoeffs forceCoeffs1 write:
    Cm    = 3.6503
    Cd    = 8.41078
    Cl    = -1.39037
    Cl(f) = 2.95512
    Cl(r) = -4.34548

Time = 4

smoothSolver:  Solving for Ux, Initial residual = 0.064332, Final residual = 0.00521958, No Iterations 6
smoothSolver:  Solving for Uy, Initial residual = 0.472169, Final residual = 0.0387266, No Iterations 6
smoothSolver:  Solving for Uz, Initial residual = 0.463661, Final residual = 0.034637, No Iterations 6
GAMG:  Solving for p, Initial residual = 0.0788082, Final residual = 0.000356441, No Iterations 5
time step continuity errors : sum local = 0.00153608, global = 8.73153e-06, cumulative = 6.29309e-05
smoothSolver:  Solving for omega, Initial residual = 0.538466, Final residual = 3.42184e-13, No Iterations 1
bounding omega, min: -466713 max: 2.28234e+16 average: 4.73609e+10
smoothSolver:  Solving for k, Initial residual = 0.0271906, Final residual = 1.976e-08, No Iterations 1
ExecutionTime = 8.08 s  ClockTime = 10 s

forceCoeffs forceCoeffs1 write:
    Cm    = 1.52075
    Cd    = 3.82487
    Cl    = -0.594432
    Cl(f) = 1.22353
    Cl(r) = -1.81796

Time = 5

smoothSolver:  Solving for Ux, Initial residual = 0.0274891, Final residual = 0.00243629, No Iterations 7
smoothSolver:  Solving for Uy, Initial residual = 0.363557, Final residual = 0.0292652, No Iterations 7
smoothSolver:  Solving for Uz, Initial residual = 0.333533, Final residual = 0.0325728, No Iterations 6
GAMG:  Solving for p, Initial residual = 0.0607827, Final residual = 0.000516788, No Iterations 4
time step continuity errors : sum local = 0.00247765, global = 2.08859e-05, cumulative = 8.38169e-05
smoothSolver:  Solving for omega, Initial residual = 0.538466, Final residual = 1.25741e-12, No Iterations 1
bounding omega, min: -170870 max: 6.84703e+15 average: 1.42083e+10
smoothSolver:  Solving for k, Initial residual = 0.00702076, Final residual = 5.83242e-08, No Iterations 1
ExecutionTime = 8.12 s  ClockTime = 10 s

forceCoeffs forceCoeffs1 write:
    Cm    = 0.748264
    Cd    = 1.92485
    Cl    = -0.27925
    Cl(f) = 0.608638
    Cl(r) = -0.887889

Time = 6

smoothSolver:  Solving for Ux, Initial residual = 0.0194292, Final residual = 0.00172563, No Iterations 7
smoothSolver:  Solving for Uy, Initial residual = 0.306059, Final residual = 0.0269476, No Iterations 7
smoothSolver:  Solving for Uz, Initial residual = 0.280488, Final residual = 0.0223408, No Iterations 7
GAMG:  Solving for p, Initial residual = 0.0529682, Final residual = 0.000388353, No Iterations 4
time step continuity errors : sum local = 0.00180492, global = 1.49311e-05, cumulative = 9.87479e-05
smoothSolver:  Solving for omega, Initial residual = 0.538466, Final residual = 4.18779e-12, No Iterations 1
bounding omega, min: -81827.4 max: 2.05411e+15 average: 4.26249e+09
smoothSolver:  Solving for k, Initial residual = 0.00188115, Final residual = 1.71991e-07, No Iterations 1
ExecutionTime = 8.16 s  ClockTime = 10 s

forceCoeffs forceCoeffs1 write:
    Cm    = 0.47848
    Cd    = 1.21197
    Cl    = -0.119541
    Cl(f) = 0.41871
    Cl(r) = -0.538251

Time = 7

smoothSolver:  Solving for Ux, Initial residual = 0.0140985, Final residual = 0.00110999, No Iterations 8
smoothSolver:  Solving for Uy, Initial residual = 0.252257, Final residual = 0.0247838, No Iterations 7
smoothSolver:  Solving for Uz, Initial residual = 0.242195, Final residual = 0.0213687, No Iterations 7
GAMG:  Solving for p, Initial residual = 0.0483056, Final residual = 0.000350305, No Iterations 4
time step continuity errors : sum local = 0.00157297, global = 1.35838e-05, cumulative = 0.000112332
smoothSolver:  Solving for omega, Initial residual = 0.538466, Final residual = 1.34565e-11, No Iterations 1
bounding omega, min: -16916.6 max: 6.16232e+14 average: 1.27875e+09
smoothSolver:  Solving for k, Initial residual = 0.000520779, Final residual = 5.27358e-07, No Iterations 1
ExecutionTime = 8.2 s  ClockTime = 10 s

forceCoeffs forceCoeffs1 write:
    Cm    = 0.346411
    Cd    = 0.837424
    Cl    = -0.064981
    Cl(f) = 0.313921
    Cl(r) = -0.378901

Time = 8

smoothSolver:  Solving for Ux, Initial residual = 0.0116492, Final residual = 0.000948757, No Iterations 8
smoothSolver:  Solving for Uy, Initial residual = 0.222392, Final residual = 0.0173634, No Iterations 8
smoothSolver:  Solving for Uz, Initial residual = 0.220653, Final residual = 0.0206158, No Iterations 7
GAMG:  Solving for p, Initial residual = 0.045017, Final residual = 0.000303618, No Iterations 4
time step continuity errors : sum local = 0.0013166, global = 5.96745e-06, cumulative = 0.000118299
smoothSolver:  Solving for omega, Initial residual = 0.538466, Final residual = 3.88617e-11, No Iterations 1
bounding omega, min: -31287.9 max: 1.8487e+14 average: 3.83627e+08
smoothSolver:  Solving for k, Initial residual = 0.00015017, Final residual = 1.64335e-06, No Iterations 1
ExecutionTime = 8.24 s  ClockTime = 10 s

forceCoeffs forceCoeffs1 write:
    Cm    = 0.292253
    Cd    = 0.676736
    Cl    = -0.0452779
    Cl(f) = 0.269615
    Cl(r) = -0.314892

Time = 9

smoothSolver:  Solving for Ux, Initial residual = 0.00978699, Final residual = 0.000845122, No Iterations 8
smoothSolver:  Solving for Uy, Initial residual = 0.194585, Final residual = 0.0157384, No Iterations 8
smoothSolver:  Solving for Uz, Initial residual = 0.208306, Final residual = 0.0207336, No Iterations 7
GAMG:  Solving for p, Initial residual = 0.0429718, Final residual = 0.000280176, No Iterations 4
time step continuity errors : sum local = 0.00118163, global = -2.22624e-06, cumulative = 0.000116073
smoothSolver:  Solving for omega, Initial residual = 0.538466, Final residual = 1.07861e-10, No Iterations 1
bounding omega, min: -10537.6 max: 5.54609e+13 average: 1.1509e+08
smoothSolver:  Solving for k, Initial residual = 5.37638e-05, Final residual = 5.22406e-06, No Iterations 1
ExecutionTime = 8.27 s  ClockTime = 10 s

forceCoeffs forceCoeffs1 write:
    Cm    = 0.272455
    Cd    = 0.594839
    Cl    = -0.0500977
    Cl(f) = 0.247407
    Cl(r) = -0.297504

Time = 10

smoothSolver:  Solving for Ux, Initial residual = 0.00869367, Final residual = 0.000777987, No Iterations 8
smoothSolver:  Solving for Uy, Initial residual = 0.175802, Final residual = 0.0144986, No Iterations 8
smoothSolver:  Solving for Uz, Initial residual = 0.202761, Final residual = 0.0164122, No Iterations 8
GAMG:  Solving for p, Initial residual = 0.041181, Final residual = 0.000271281, No Iterations 4
time step continuity errors : sum local = 0.00110888, global = -8.1116e-06, cumulative = 0.000107961
smoothSolver:  Solving for omega, Initial residual = 0.538466, Final residual = 3.01788e-10, No Iterations 1
bounding omega, min: -124.032 max: 1.66383e+13 average: 3.45284e+07
smoothSolver:  Solving for k, Initial residual = 5.12098e-05, Final residual = 3.95128e-06, No Iterations 3
ExecutionTime = 8.31 s  ClockTime = 10 s

forceCoeffs forceCoeffs1 write:
    Cm    = 0.254105
    Cd    = 0.547229
    Cl    = -0.0375741
    Cl(f) = 0.235318
    Cl(r) = -0.272892

Time = 11

smoothSolver:  Solving for Ux, Initial residual = 0.00787374, Final residual = 0.000726014, No Iterations 8
smoothSolver:  Solving for Uy, Initial residual = 0.161716, Final residual = 0.013979, No Iterations 8
smoothSolver:  Solving for Uz, Initial residual = 0.191834, Final residual = 0.0161617, No Iterations 8
GAMG:  Solving for p, Initial residual = 0.0399043, Final residual = 0.000264179, No Iterations 4
time step continuity errors : sum local = 0.00104806, global = -1.07563e-05, cumulative = 9.72051e-05
smoothSolver:  Solving for omega, Initial residual = 0.538466, Final residual = 1.06766e-09, No Iterations 1
bounding omega, min: -14357.1 max: 4.99148e+12 average: 1.03598e+07
smoothSolver:  Solving for k, Initial residual = 0.000123721, Final residual = 6.3139e-06, No Iterations 4
bounding k, min: -4.0847e-06 max: 147.073 average: 0.512682
ExecutionTime = 8.36 s  ClockTime = 10 s

forceCoeffs forceCoeffs1 write:
    Cm    = 0.240523
    Cd    = 0.519788
    Cl    = -0.0388674
    Cl(f) = 0.221089
    Cl(r) = -0.259956

Time = 12

smoothSolver:  Solving for Ux, Initial residual = 0.00727812, Final residual = 0.000692636, No Iterations 8
smoothSolver:  Solving for Uy, Initial residual = 0.151997, Final residual = 0.0134674, No Iterations 8
smoothSolver:  Solving for Uz, Initial residual = 0.176229, Final residual = 0.0153466, No Iterations 8
GAMG:  Solving for p, Initial residual = 0.0388522, Final residual = 0.000267713, No Iterations 4
time step continuity errors : sum local = 0.00102414, global = -1.11104e-05, cumulative = 8.60947e-05
smoothSolver:  Solving for omega, Initial residual = 0.538466, Final residual = 3.20887e-09, No Iterations 1
bounding omega, min: -12703.6 max: 1.49744e+12 average: 3.1091e+06
smoothSolver:  Solving for k, Initial residual = 0.000376336, Final residual = 1.95143e-05, No Iterations 4
bounding k, min: -2.91553e-06 max: 165.092 average: 0.533495
ExecutionTime = 8.4 s  ClockTime = 10 s

forceCoeffs forceCoeffs1 write:
    Cm    = 0.223882
    Cd    = 0.488832
    Cl    = -0.025253
    Cl(f) = 0.211255
    Cl(r) = -0.236508

Time = 13

smoothSolver:  Solving for Ux, Initial residual = 0.00681699, Final residual = 0.000676245, No Iterations 8
smoothSolver:  Solving for Uy, Initial residual = 0.142199, Final residual = 0.0130486, No Iterations 8
smoothSolver:  Solving for Uz, Initial residual = 0.16407, Final residual = 0.0147557, No Iterations 8
GAMG:  Solving for p, Initial residual = 0.0379181, Final residual = 0.000262615, No Iterations 4
time step continuity errors : sum local = 0.000966875, global = -9.55626e-06, cumulative = 7.65384e-05
smoothSolver:  Solving for omega, Initial residual = 0.538466, Final residual = 9.4836e-09, No Iterations 1
bounding omega, min: -14765.5 max: 4.49233e+11 average: 933764
smoothSolver:  Solving for k, Initial residual = 0.00105645, Final residual = 5.54626e-05, No Iterations 4
bounding k, min: -5.81155e-06 max: 188.778 average: 0.550604
ExecutionTime = 8.45 s  ClockTime = 10 s

forceCoeffs forceCoeffs1 write:
    Cm    = 0.210878
    Cd    = 0.466256
    Cl    = -0.0163733
    Cl(f) = 0.202691
    Cl(r) = -0.219065

Time = 14

smoothSolver:  Solving for Ux, Initial residual = 0.00647552, Final residual = 0.000523316, No Iterations 9
smoothSolver:  Solving for Uy, Initial residual = 0.132866, Final residual = 0.0126613, No Iterations 8
smoothSolver:  Solving for Uz, Initial residual = 0.154576, Final residual = 0.0144984, No Iterations 8
GAMG:  Solving for p, Initial residual = 0.0374015, Final residual = 0.000248076, No Iterations 4
time step continuity errors : sum local = 0.000877217, global = -6.11402e-06, cumulative = 7.04244e-05
smoothSolver:  Solving for omega, Initial residual = 0.538464, Final residual = 3.07531e-08, No Iterations 1
bounding omega, min: -29526.4 max: 1.3477e+11 average: 281078
smoothSolver:  Solving for k, Initial residual = 0.00249248, Final residual = 0.000128146, No Iterations 4
bounding k, min: -4.07339e-07 max: 281.153 average: 0.567436
ExecutionTime = 8.5 s  ClockTime = 10 s

forceCoeffs forceCoeffs1 write:
    Cm    = 0.200157
    Cd    = 0.453641
    Cl    = -0.00483272
    Cl(f) = 0.19774
    Cl(r) = -0.202573

Time = 15

smoothSolver:  Solving for Ux, Initial residual = 0.00613337, Final residual = 0.000515899, No Iterations 9
smoothSolver:  Solving for Uy, Initial residual = 0.12222, Final residual = 0.0122086, No Iterations 8
smoothSolver:  Solving for Uz, Initial residual = 0.148176, Final residual = 0.0144558, No Iterations 8
GAMG:  Solving for p, Initial residual = 0.0369535, Final residual = 0.000248627, No Iterations 4
time step continuity errors : sum local = 0.000841144, global = -5.16339e-06, cumulative = 6.5261e-05
smoothSolver:  Solving for omega, Initial residual = 0.538459, Final residual = 9.22653e-08, No Iterations 1
bounding omega, min: -23800.4 max: 4.0431e+10 average: 85209
smoothSolver:  Solving for k, Initial residual = 0.00424267, Final residual = 0.000424217, No Iterations 3
bounding k, min: -9.43408e-08 max: 516.544 average: 0.581378
ExecutionTime = 8.55 s  ClockTime = 10 s

forceCoeffs forceCoeffs1 write:
    Cm    = 0.192406
    Cd    = 0.449355
    Cl    = 0.015749
    Cl(f) = 0.200281
    Cl(r) = -0.184532

Time = 16

smoothSolver:  Solving for Ux, Initial residual = 0.0059021, Final residual = 0.000511114, No Iterations 9
smoothSolver:  Solving for Uy, Initial residual = 0.112606, Final residual = 0.00932885, No Iterations 9
smoothSolver:  Solving for Uz, Initial residual = 0.142488, Final residual = 0.0113773, No Iterations 9
GAMG:  Solving for p, Initial residual = 0.0365742, Final residual = 0.000249596, No Iterations 4
time step continuity errors : sum local = 0.000804175, global = -4.49823e-06, cumulative = 6.07628e-05
smoothSolver:  Solving for omega, Initial residual = 0.538443, Final residual = 2.78306e-07, No Iterations 1
bounding omega, min: -2560.71 max: 1.21293e+10 average: 26405.3
smoothSolver:  Solving for k, Initial residual = 0.00498829, Final residual = 0.000264703, No Iterations 4
bounding k, min: -2.62339e-07 max: 233.847 average: 0.591849
ExecutionTime = 8.59 s  ClockTime = 10 s

forceCoeffs forceCoeffs1 write:
    Cm    = 0.181603
    Cd    = 0.438548
    Cl    = 0.0192582
    Cl(f) = 0.191232
    Cl(r) = -0.171973

Time = 17

smoothSolver:  Solving for Ux, Initial residual = 0.00560831, Final residual = 0.000507735, No Iterations 9
smoothSolver:  Solving for Uy, Initial residual = 0.104686, Final residual = 0.00898758, No Iterations 9
smoothSolver:  Solving for Uz, Initial residual = 0.133667, Final residual = 0.0112449, No Iterations 9
GAMG:  Solving for p, Initial residual = 0.0364738, Final residual = 0.000248751, No Iterations 4
time step continuity errors : sum local = 0.000761625, global = -3.84056e-06, cumulative = 5.69222e-05
smoothSolver:  Solving for omega, Initial residual = 0.538385, Final residual = 8.74138e-07, No Iterations 1
bounding omega, min: -553.954 max: 3.63879e+09 average: 8732.67
smoothSolver:  Solving for k, Initial residual = 0.00528543, Final residual = 0.00029092, No Iterations 4
bounding k, min: -3.82396e-07 max: 277.571 average: 0.600461
ExecutionTime = 8.63 s  ClockTime = 10 s

forceCoeffs forceCoeffs1 write:
    Cm    = 0.17141
    Cd    = 0.426695
    Cl    = 0.024795
    Cl(f) = 0.183807
    Cl(r) = -0.159012

Time = 18

smoothSolver:  Solving for Ux, Initial residual = 0.00539035, Final residual = 0.00050489, No Iterations 9
smoothSolver:  Solving for Uy, Initial residual = 0.0987113, Final residual = 0.00866249, No Iterations 9
smoothSolver:  Solving for Uz, Initial residual = 0.125408, Final residual = 0.0109728, No Iterations 9
GAMG:  Solving for p, Initial residual = 0.0363971, Final residual = 0.000243156, No Iterations 4
time step continuity errors : sum local = 0.000709988, global = -2.40207e-06, cumulative = 5.45201e-05
smoothSolver:  Solving for omega, Initial residual = 0.538168, Final residual = 2.62453e-06, No Iterations 1
smoothSolver:  Solving for k, Initial residual = 0.00541443, Final residual = 0.000305015, No Iterations 4
bounding k, min: -2.56879e-08 max: 291.084 average: 0.609238
ExecutionTime = 8.67 s  ClockTime = 10 s

forceCoeffs forceCoeffs1 write:
    Cm    = 0.165967
    Cd    = 0.423157
    Cl    = 0.0222456
    Cl(f) = 0.17709
    Cl(r) = -0.154844

Time = 19

smoothSolver:  Solving for Ux, Initial residual = 0.00521118, Final residual = 0.00049965, No Iterations 9
smoothSolver:  Solving for Uy, Initial residual = 0.0945451, Final residual = 0.00853775, No Iterations 9
smoothSolver:  Solving for Uz, Initial residual = 0.117439, Final residual = 0.0106051, No Iterations 9
GAMG:  Solving for p, Initial residual = 0.0360828, Final residual = 0.000254978, No Iterations 4
time step continuity errors : sum local = 0.000712131, global = -2.76631e-06, cumulative = 5.17538e-05
smoothSolver:  Solving for omega, Initial residual = 0.537188, Final residual = 8.5563e-06, No Iterations 1
smoothSolver:  Solving for k, Initial residual = 0.00558202, Final residual = 0.000320095, No Iterations 4
ExecutionTime = 8.72 s  ClockTime = 10 s

forceCoeffs forceCoeffs1 write:
    Cm    = 0.160913
    Cd    = 0.41338
    Cl    = 0.0193152
    Cl(f) = 0.17057
    Cl(r) = -0.151255

Time = 20

smoothSolver:  Solving for Ux, Initial residual = 0.00504901, Final residual = 0.000491578, No Iterations 9
smoothSolver:  Solving for Uy, Initial residual = 0.0921395, Final residual = 0.00853232, No Iterations 9
smoothSolver:  Solving for Uz, Initial residual = 0.111738, Final residual = 0.010315, No Iterations 9
GAMG:  Solving for p, Initial residual = 0.0355972, Final residual = 0.000252299, No Iterations 4
time step continuity errors : sum local = 0.00067791, global = -2.80634e-06, cumulative = 4.89475e-05
smoothSolver:  Solving for omega, Initial residual = 0.531165, Final residual = 2.96666e-05, No Iterations 1
smoothSolver:  Solving for k, Initial residual = 0.00573688, Final residual = 0.000334213, No Iterations 4
ExecutionTime = 8.76 s  ClockTime = 10 s

forceCoeffs forceCoeffs1 write:
    Cm    = 0.158901
    Cd    = 0.409442
    Cl    = 0.0143903
    Cl(f) = 0.166096
    Cl(r) = -0.151705

Time = 21

smoothSolver:  Solving for Ux, Initial residual = 0.00486208, Final residual = 0.000483545, No Iterations 9
smoothSolver:  Solving for Uy, Initial residual = 0.0907044, Final residual = 0.00863201, No Iterations 9
smoothSolver:  Solving for Uz, Initial residual = 0.107535, Final residual = 0.0102042, No Iterations 9
GAMG:  Solving for p, Initial residual = 0.0350018, Final residual = 0.000254708, No Iterations 4
time step continuity errors : sum local = 0.000661228, global = -3.00074e-06, cumulative = 4.59468e-05
smoothSolver:  Solving for omega, Initial residual = 0.485554, Final residual = 0.000112769, No Iterations 1
smoothSolver:  Solving for k, Initial residual = 0.00569471, Final residual = 0.000347864, No Iterations 4
ExecutionTime = 8.8 s  ClockTime = 10 s

forceCoeffs forceCoeffs1 write:
    Cm    = 0.160737
    Cd    = 0.408529
    Cl    = 0.0134997
    Cl(f) = 0.167486
    Cl(r) = -0.153987

Time = 22

smoothSolver:  Solving for Ux, Initial residual = 0.00470747, Final residual = 0.000384537, No Iterations 10
smoothSolver:  Solving for Uy, Initial residual = 0.0907494, Final residual = 0.00882845, No Iterations 9
smoothSolver:  Solving for Uz, Initial residual = 0.103961, Final residual = 0.0101035, No Iterations 9
GAMG:  Solving for p, Initial residual = 0.0340031, Final residual = 0.000250544, No Iterations 4
time step continuity errors : sum local = 0.000632231, global = -2.78753e-06, cumulative = 4.31592e-05
smoothSolver:  Solving for omega, Initial residual = 0.2628, Final residual = 0.000327506, No Iterations 1
smoothSolver:  Solving for k, Initial residual = 0.00573343, Final residual = 0.000359459, No Iterations 4
ExecutionTime = 8.84 s  ClockTime = 10 s

forceCoeffs forceCoeffs1 write:
    Cm    = 0.162757
    Cd    = 0.408055
    Cl    = 0.01172
    Cl(f) = 0.168617
    Cl(r) = -0.156897

Time = 23

smoothSolver:  Solving for Ux, Initial residual = 0.00454975, Final residual = 0.000383065, No Iterations 10
smoothSolver:  Solving for Uy, Initial residual = 0.0912929, Final residual = 0.00732571, No Iterations 10
smoothSolver:  Solving for Uz, Initial residual = 0.0996647, Final residual = 0.0080156, No Iterations 10
GAMG:  Solving for p, Initial residual = 0.0329081, Final residual = 0.000247802, No Iterations 4
time step continuity errors : sum local = 0.000609228, global = -3.11071e-06, cumulative = 4.00485e-05
smoothSolver:  Solving for omega, Initial residual = 0.0457662, Final residual = 0.000404611, No Iterations 1
smoothSolver:  Solving for k, Initial residual = 0.00580033, Final residual = 0.000373418, No Iterations 4
ExecutionTime = 8.88 s  ClockTime = 10 s

forceCoeffs forceCoeffs1 write:
    Cm    = 0.164828
    Cd    = 0.406108
    Cl    = 0.0109083
    Cl(f) = 0.170282
    Cl(r) = -0.159374

Time = 24

smoothSolver:  Solving for Ux, Initial residual = 0.00441321, Final residual = 0.000382283, No Iterations 10
smoothSolver:  Solving for Uy, Initial residual = 0.0910465, Final residual = 0.00748451, No Iterations 10
smoothSolver:  Solving for Uz, Initial residual = 0.0943026, Final residual = 0.00774309, No Iterations 10
GAMG:  Solving for p, Initial residual = 0.03192, Final residual = 0.000241087, No Iterations 4
time step continuity errors : sum local = 0.000578036, global = -3.67334e-06, cumulative = 3.63752e-05
smoothSolver:  Solving for omega, Initial residual = 0.00538783, Final residual = 0.000360549, No Iterations 1
smoothSolver:  Solving for k, Initial residual = 0.00582129, Final residual = 0.000386609, No Iterations 4
ExecutionTime = 8.93 s  ClockTime = 10 s

forceCoeffs forceCoeffs1 write:
    Cm    = 0.166084
    Cd    = 0.405507
    Cl    = 0.0103797
    Cl(f) = 0.171274
    Cl(r) = -0.160894

Time = 25

smoothSolver:  Solving for Ux, Initial residual = 0.00427098, Final residual = 0.000378143, No Iterations 10
smoothSolver:  Solving for Uy, Initial residual = 0.0892684, Final residual = 0.00747214, No Iterations 10
smoothSolver:  Solving for Uz, Initial residual = 0.0876731, Final residual = 0.00735046, No Iterations 10
GAMG:  Solving for p, Initial residual = 0.0310095, Final residual = 0.000232171, No Iterations 4
time step continuity errors : sum local = 0.000542241, global = -3.28306e-06, cumulative = 3.30921e-05
smoothSolver:  Solving for omega, Initial residual = 0.00120318, Final residual = 7.07146e-05, No Iterations 3
smoothSolver:  Solving for k, Initial residual = 0.00575068, Final residual = 0.000391325, No Iterations 4
ExecutionTime = 8.97 s  ClockTime = 10 s

forceCoeffs forceCoeffs1 write:
    Cm    = 0.166323
    Cd    = 0.404158
    Cl    = 0.0132326
    Cl(f) = 0.17294
    Cl(r) = -0.159707

Time = 26

smoothSolver:  Solving for Ux, Initial residual = 0.00413538, Final residual = 0.000370506, No Iterations 10
smoothSolver:  Solving for Uy, Initial residual = 0.0869286, Final residual = 0.00734987, No Iterations 10
smoothSolver:  Solving for Uz, Initial residual = 0.0811341, Final residual = 0.00692336, No Iterations 10
GAMG:  Solving for p, Initial residual = 0.03017, Final residual = 0.000225263, No Iterations 4
time step continuity errors : sum local = 0.000511692, global = -3.60245e-06, cumulative = 2.94897e-05
smoothSolver:  Solving for omega, Initial residual = 0.000668747, Final residual = 6.20444e-05, No Iterations 3
smoothSolver:  Solving for k, Initial residual = 0.00563387, Final residual = 0.000389455, No Iterations 4
ExecutionTime = 9.02 s  ClockTime = 10 s

forceCoeffs forceCoeffs1 write:
    Cm    = 0.165815
    Cd    = 0.402821
    Cl    = 0.0190625
    Cl(f) = 0.175346
    Cl(r) = -0.156284

Time = 27

smoothSolver:  Solving for Ux, Initial residual = 0.0039961, Final residual = 0.000362302, No Iterations 10
smoothSolver:  Solving for Uy, Initial residual = 0.08432, Final residual = 0.00721605, No Iterations 10
smoothSolver:  Solving for Uz, Initial residual = 0.0753339, Final residual = 0.00655422, No Iterations 10
GAMG:  Solving for p, Initial residual = 0.0294532, Final residual = 0.000223357, No Iterations 4
time step continuity errors : sum local = 0.000493749, global = -4.5302e-06, cumulative = 2.49595e-05
smoothSolver:  Solving for omega, Initial residual = 0.000567173, Final residual = 5.64246e-05, No Iterations 3
smoothSolver:  Solving for k, Initial residual = 0.00565393, Final residual = 0.000392613, No Iterations 4
ExecutionTime = 9.07 s  ClockTime = 11 s

forceCoeffs forceCoeffs1 write:
    Cm    = 0.165031
    Cd    = 0.402581
    Cl    = 0.0269251
    Cl(f) = 0.178493
    Cl(r) = -0.151568

Time = 28

smoothSolver:  Solving for Ux, Initial residual = 0.00388705, Final residual = 0.000354549, No Iterations 10
smoothSolver:  Solving for Uy, Initial residual = 0.0820548, Final residual = 0.00711481, No Iterations 10
smoothSolver:  Solving for Uz, Initial residual = 0.0711407, Final residual = 0.00625527, No Iterations 10
GAMG:  Solving for p, Initial residual = 0.0287195, Final residual = 0.000222293, No Iterations 4
time step continuity errors : sum local = 0.00047708, global = -5.31549e-06, cumulative = 1.9644e-05
smoothSolver:  Solving for omega, Initial residual = 0.000539715, Final residual = 5.25066e-05, No Iterations 3
smoothSolver:  Solving for k, Initial residual = 0.0057843, Final residual = 0.000388214, No Iterations 4
ExecutionTime = 9.11 s  ClockTime = 11 s

forceCoeffs forceCoeffs1 write:
    Cm    = 0.163958
    Cd    = 0.401146
    Cl    = 0.0335966
    Cl(f) = 0.180756
    Cl(r) = -0.147159

Time = 29

smoothSolver:  Solving for Ux, Initial residual = 0.00377418, Final residual = 0.000346575, No Iterations 10
smoothSolver:  Solving for Uy, Initial residual = 0.0798264, Final residual = 0.00702356, No Iterations 10
smoothSolver:  Solving for Uz, Initial residual = 0.0679656, Final residual = 0.00603073, No Iterations 10
GAMG:  Solving for p, Initial residual = 0.0281568, Final residual = 0.000224009, No Iterations 4
time step continuity errors : sum local = 0.000466372, global = -5.62793e-06, cumulative = 1.4016e-05
smoothSolver:  Solving for omega, Initial residual = 0.000538767, Final residual = 4.96021e-05, No Iterations 3
smoothSolver:  Solving for k, Initial residual = 0.0056981, Final residual = 0.000381565, No Iterations 4
ExecutionTime = 9.15 s  ClockTime = 11 s

forceCoeffs forceCoeffs1 write:
    Cm    = 0.165913
    Cd    = 0.407339
    Cl    = 0.0418994
    Cl(f) = 0.186863
    Cl(r) = -0.144963

Time = 30

smoothSolver:  Solving for Ux, Initial residual = 0.00366147, Final residual = 0.000337255, No Iterations 10
smoothSolver:  Solving for Uy, Initial residual = 0.0784618, Final residual = 0.00697035, No Iterations 10
smoothSolver:  Solving for Uz, Initial residual = 0.065546, Final residual = 0.00581805, No Iterations 10
GAMG:  Solving for p, Initial residual = 0.0274965, Final residual = 0.00021425, No Iterations 4
time step continuity errors : sum local = 0.000432979, global = -5.71822e-06, cumulative = 8.29783e-06
smoothSolver:  Solving for omega, Initial residual = 0.000489347, Final residual = 4.69235e-05, No Iterations 3
smoothSolver:  Solving for k, Initial residual = 0.00551848, Final residual = 0.000378859, No Iterations 4
ExecutionTime = 9.2 s  ClockTime = 11 s

forceCoeffs forceCoeffs1 write:
    Cm    = 0.165646
    Cd    = 0.404778
    Cl    = 0.0448699
    Cl(f) = 0.188081
    Cl(r) = -0.143211

Time = 31

smoothSolver:  Solving for Ux, Initial residual = 0.00349947, Final residual = 0.00032716, No Iterations 10
smoothSolver:  Solving for Uy, Initial residual = 0.0772173, Final residual = 0.00698737, No Iterations 10
smoothSolver:  Solving for Uz, Initial residual = 0.0621082, Final residual = 0.00561474, No Iterations 10
GAMG:  Solving for p, Initial residual = 0.0270168, Final residual = 0.000210756, No Iterations 4
time step continuity errors : sum local = 0.000414229, global = -5.76721e-06, cumulative = 2.53062e-06
smoothSolver:  Solving for omega, Initial residual = 0.000446642, Final residual = 2.24503e-05, No Iterations 4
smoothSolver:  Solving for k, Initial residual = 0.00535702, Final residual = 0.000377032, No Iterations 4
ExecutionTime = 9.24 s  ClockTime = 11 s

forceCoeffs forceCoeffs1 write:
    Cm    = 0.166821
    Cd    = 0.404607
    Cl    = 0.0477785
    Cl(f) = 0.19071
    Cl(r) = -0.142932

Time = 32

smoothSolver:  Solving for Ux, Initial residual = 0.0033829, Final residual = 0.000318347, No Iterations 10
smoothSolver:  Solving for Uy, Initial residual = 0.0764251, Final residual = 0.0069933, No Iterations 10
smoothSolver:  Solving for Uz, Initial residual = 0.0599242, Final residual = 0.00543195, No Iterations 10
GAMG:  Solving for p, Initial residual = 0.0265429, Final residual = 0.000209546, No Iterations 4
time step continuity errors : sum local = 0.000401794, global = -5.65625e-06, cumulative = -3.12563e-06
smoothSolver:  Solving for omega, Initial residual = 0.00041732, Final residual = 2.12957e-05, No Iterations 4
smoothSolver:  Solving for k, Initial residual = 0.005254, Final residual = 0.000373204, No Iterations 4
ExecutionTime = 9.29 s  ClockTime = 11 s

forceCoeffs forceCoeffs1 write:
    Cm    = 0.167481
    Cd    = 0.403195
    Cl    = 0.0499359
    Cl(f) = 0.192449
    Cl(r) = -0.142513

Time = 33

smoothSolver:  Solving for Ux, Initial residual = 0.00327584, Final residual = 0.000311732, No Iterations 10
smoothSolver:  Solving for Uy, Initial residual = 0.074469, Final residual = 0.00686157, No Iterations 10
smoothSolver:  Solving for Uz, Initial residual = 0.0580737, Final residual = 0.0052822, No Iterations 10
GAMG:  Solving for p, Initial residual = 0.0260568, Final residual = 0.000208038, No Iterations 4
time step continuity errors : sum local = 0.000389386, global = -5.36993e-06, cumulative = -8.49556e-06
smoothSolver:  Solving for omega, Initial residual = 0.000396377, Final residual = 2.0311e-05, No Iterations 4
smoothSolver:  Solving for k, Initial residual = 0.00517474, Final residual = 0.000366452, No Iterations 4
ExecutionTime = 9.34 s  ClockTime = 11 s

forceCoeffs forceCoeffs1 write:
    Cm    = 0.16725
    Cd    = 0.400326
    Cl    = 0.0510185
    Cl(f) = 0.19276
    Cl(r) = -0.141741

Time = 34

smoothSolver:  Solving for Ux, Initial residual = 0.00316483, Final residual = 0.000304889, No Iterations 10
smoothSolver:  Solving for Uy, Initial residual = 0.071143, Final residual = 0.00658657, No Iterations 10
smoothSolver:  Solving for Uz, Initial residual = 0.05612, Final residual = 0.0051434, No Iterations 10
GAMG:  Solving for p, Initial residual = 0.0254246, Final residual = 0.000207138, No Iterations 4
time step continuity errors : sum local = 0.000378767, global = -4.41959e-06, cumulative = -1.29151e-05
smoothSolver:  Solving for omega, Initial residual = 0.000379493, Final residual = 1.95706e-05, No Iterations 4
smoothSolver:  Solving for k, Initial residual = 0.00504737, Final residual = 0.000358777, No Iterations 4
ExecutionTime = 9.38 s  ClockTime = 11 s

forceCoeffs forceCoeffs1 write:
    Cm    = 0.167005
    Cd    = 0.398298
    Cl    = 0.0519718
    Cl(f) = 0.192991
    Cl(r) = -0.141019

Time = 35

smoothSolver:  Solving for Ux, Initial residual = 0.00306122, Final residual = 0.000296031, No Iterations 10
smoothSolver:  Solving for Uy, Initial residual = 0.0682477, Final residual = 0.0063278, No Iterations 10
smoothSolver:  Solving for Uz, Initial residual = 0.053944, Final residual = 0.00497832, No Iterations 10
GAMG:  Solving for p, Initial residual = 0.0247789, Final residual = 0.000202402, No Iterations 4
time step continuity errors : sum local = 0.000362934, global = -3.44394e-06, cumulative = -1.63591e-05
smoothSolver:  Solving for omega, Initial residual = 0.000363768, Final residual = 1.89985e-05, No Iterations 4
smoothSolver:  Solving for k, Initial residual = 0.00493081, Final residual = 0.000350976, No Iterations 4
ExecutionTime = 9.43 s  ClockTime = 11 s

forceCoeffs forceCoeffs1 write:
    Cm    = 0.166272
    Cd    = 0.395513
    Cl    = 0.051796
    Cl(f) = 0.19217
    Cl(r) = -0.140374

Time = 36

smoothSolver:  Solving for Ux, Initial residual = 0.00296749, Final residual = 0.000287076, No Iterations 10
smoothSolver:  Solving for Uy, Initial residual = 0.0663026, Final residual = 0.00617604, No Iterations 10
smoothSolver:  Solving for Uz, Initial residual = 0.0517674, Final residual = 0.00482146, No Iterations 10
GAMG:  Solving for p, Initial residual = 0.0240135, Final residual = 0.000193391, No Iterations 4
time step continuity errors : sum local = 0.000340875, global = -2.83563e-06, cumulative = -1.91947e-05
smoothSolver:  Solving for omega, Initial residual = 0.000350655, Final residual = 1.84424e-05, No Iterations 4
smoothSolver:  Solving for k, Initial residual = 0.00481376, Final residual = 0.000342715, No Iterations 4
ExecutionTime = 9.48 s  ClockTime = 11 s

forceCoeffs forceCoeffs1 write:
    Cm    = 0.16536
    Cd    = 0.393462
    Cl    = 0.051884
    Cl(f) = 0.191302
    Cl(r) = -0.139418

Time = 37

smoothSolver:  Solving for Ux, Initial residual = 0.00288372, Final residual = 0.00028054, No Iterations 10
smoothSolver:  Solving for Uy, Initial residual = 0.0649484, Final residual = 0.0061381, No Iterations 10
smoothSolver:  Solving for Uz, Initial residual = 0.0496902, Final residual = 0.00469115, No Iterations 10
GAMG:  Solving for p, Initial residual = 0.0232451, Final residual = 0.000185934, No Iterations 4
time step continuity errors : sum local = 0.000323072, global = -2.52478e-06, cumulative = -2.17195e-05
smoothSolver:  Solving for omega, Initial residual = 0.000340759, Final residual = 1.79579e-05, No Iterations 4
smoothSolver:  Solving for k, Initial residual = 0.00470753, Final residual = 0.000334474, No Iterations 4
ExecutionTime = 9.53 s  ClockTime = 11 s

forceCoeffs forceCoeffs1 write:
    Cm    = 0.16416
    Cd    = 0.391709
    Cl    = 0.0520222
    Cl(f) = 0.190171
    Cl(r) = -0.138148

Time = 38

smoothSolver:  Solving for Ux, Initial residual = 0.00280919, Final residual = 0.00027656, No Iterations 10
smoothSolver:  Solving for Uy, Initial residual = 0.0621437, Final residual = 0.00597237, No Iterations 10
smoothSolver:  Solving for Uz, Initial residual = 0.0478494, Final residual = 0.00457796, No Iterations 10
GAMG:  Solving for p, Initial residual = 0.0225951, Final residual = 0.000179777, No Iterations 4
time step continuity errors : sum local = 0.000308301, global = -2.43667e-06, cumulative = -2.41562e-05
smoothSolver:  Solving for omega, Initial residual = 0.000330636, Final residual = 1.74542e-05, No Iterations 4
smoothSolver:  Solving for k, Initial residual = 0.004613, Final residual = 0.000327878, No Iterations 4
ExecutionTime = 9.57 s  ClockTime = 11 s

forceCoeffs forceCoeffs1 write:
    Cm    = 0.162965
    Cd    = 0.391107
    Cl    = 0.0534959
    Cl(f) = 0.189713
    Cl(r) = -0.136217

Time = 39

smoothSolver:  Solving for Ux, Initial residual = 0.00273758, Final residual = 0.000273745, No Iterations 10
smoothSolver:  Solving for Uy, Initial residual = 0.0589961, Final residual = 0.00574721, No Iterations 10
smoothSolver:  Solving for Uz, Initial residual = 0.0462091, Final residual = 0.00447581, No Iterations 10
GAMG:  Solving for p, Initial residual = 0.0220293, Final residual = 0.000176091, No Iterations 4
time step continuity errors : sum local = 0.000298238, global = -2.37166e-06, cumulative = -2.65278e-05
smoothSolver:  Solving for omega, Initial residual = 0.000321328, Final residual = 1.69521e-05, No Iterations 4
smoothSolver:  Solving for k, Initial residual = 0.00450315, Final residual = 0.000320489, No Iterations 4
ExecutionTime = 9.61 s  ClockTime = 11 s

forceCoeffs forceCoeffs1 write:
    Cm    = 0.161452
    Cd    = 0.39091
    Cl    = 0.055807
    Cl(f) = 0.189355
    Cl(r) = -0.133548

Time = 40

smoothSolver:  Solving for Ux, Initial residual = 0.0026658, Final residual = 0.000218939, No Iterations 11
smoothSolver:  Solving for Uy, Initial residual = 0.0563281, Final residual = 0.00552076, No Iterations 10
smoothSolver:  Solving for Uz, Initial residual = 0.0448597, Final residual = 0.00438173, No Iterations 10
GAMG:  Solving for p, Initial residual = 0.0214829, Final residual = 0.0001719, No Iterations 4
time step continuity errors : sum local = 0.000287511, global = -2.63891e-06, cumulative = -2.91667e-05
smoothSolver:  Solving for omega, Initial residual = 0.000309522, Final residual = 1.64686e-05, No Iterations 4
bounding omega, min: -0.63614 max: 146179 average: 913.266
smoothSolver:  Solving for k, Initial residual = 0.00439548, Final residual = 0.000311971, No Iterations 4
ExecutionTime = 9.66 s  ClockTime = 11 s

forceCoeffs forceCoeffs1 write:
    Cm    = 0.159854
    Cd    = 0.390936
    Cl    = 0.0593635
    Cl(f) = 0.189535
    Cl(r) = -0.130172

Time = 41

smoothSolver:  Solving for Ux, Initial residual = 0.00258769, Final residual = 0.00021416, No Iterations 11
smoothSolver:  Solving for Uy, Initial residual = 0.0542289, Final residual = 0.00532987, No Iterations 10
smoothSolver:  Solving for Uz, Initial residual = 0.0437081, Final residual = 0.00427651, No Iterations 10
GAMG:  Solving for p, Initial residual = 0.021013, Final residual = 0.000167861, No Iterations 4
time step continuity errors : sum local = 0.000277669, global = -2.77808e-06, cumulative = -3.19448e-05
smoothSolver:  Solving for omega, Initial residual = 0.000299516, Final residual = 1.60495e-05, No Iterations 4
smoothSolver:  Solving for k, Initial residual = 0.00428053, Final residual = 0.000303284, No Iterations 4
ExecutionTime = 9.7 s  ClockTime = 11 s

forceCoeffs forceCoeffs1 write:
    Cm    = 0.158307
    Cd    = 0.391076
    Cl    = 0.0631935
    Cl(f) = 0.189904
    Cl(r) = -0.12671

Time = 42

smoothSolver:  Solving for Ux, Initial residual = 0.0025145, Final residual = 0.00020818, No Iterations 11
smoothSolver:  Solving for Uy, Initial residual = 0.0525794, Final residual = 0.00516475, No Iterations 10
smoothSolver:  Solving for Uz, Initial residual = 0.0425935, Final residual = 0.00414583, No Iterations 10
GAMG:  Solving for p, Initial residual = 0.0205883, Final residual = 0.000164735, No Iterations 4
time step continuity errors : sum local = 0.000269832, global = -2.86636e-06, cumulative = -3.48112e-05
smoothSolver:  Solving for omega, Initial residual = 0.000289483, Final residual = 1.55753e-05, No Iterations 4
smoothSolver:  Solving for k, Initial residual = 0.00415524, Final residual = 0.000293924, No Iterations 4
ExecutionTime = 9.74 s  ClockTime = 11 s

forceCoeffs forceCoeffs1 write:
    Cm    = 0.156745
    Cd    = 0.390883
    Cl    = 0.0668362
    Cl(f) = 0.190164
    Cl(r) = -0.123327

Time = 43

smoothSolver:  Solving for Ux, Initial residual = 0.00244924, Final residual = 0.000202093, No Iterations 11
smoothSolver:  Solving for Uy, Initial residual = 0.0516592, Final residual = 0.00506241, No Iterations 10
smoothSolver:  Solving for Uz, Initial residual = 0.0415153, Final residual = 0.00400707, No Iterations 10
GAMG:  Solving for p, Initial residual = 0.0201735, Final residual = 0.000161451, No Iterations 4
time step continuity errors : sum local = 0.000262342, global = -2.78116e-06, cumulative = -3.75923e-05
smoothSolver:  Solving for omega, Initial residual = 0.000282633, Final residual = 1.51502e-05, No Iterations 4
smoothSolver:  Solving for k, Initial residual = 0.00403336, Final residual = 0.000284496, No Iterations 4
ExecutionTime = 9.78 s  ClockTime = 11 s

forceCoeffs forceCoeffs1 write:
    Cm    = 0.155201
    Cd    = 0.390343
    Cl    = 0.0692391
    Cl(f) = 0.189821
    Cl(r) = -0.120582

Time = 44

smoothSolver:  Solving for Ux, Initial residual = 0.00239384, Final residual = 0.000197089, No Iterations 11
smoothSolver:  Solving for Uy, Initial residual = 0.0513034, Final residual = 0.00500451, No Iterations 10
smoothSolver:  Solving for Uz, Initial residual = 0.0406092, Final residual = 0.00388798, No Iterations 10
GAMG:  Solving for p, Initial residual = 0.019867, Final residual = 0.000156105, No Iterations 4
time step continuity errors : sum local = 0.000251896, global = -2.62966e-06, cumulative = -4.0222e-05
smoothSolver:  Solving for omega, Initial residual = 0.000275755, Final residual = 1.47062e-05, No Iterations 4
smoothSolver:  Solving for k, Initial residual = 0.0039205, Final residual = 0.000275502, No Iterations 4
ExecutionTime = 9.82 s  ClockTime = 11 s

forceCoeffs forceCoeffs1 write:
    Cm    = 0.154111
    Cd    = 0.390129
    Cl    = 0.0708686
    Cl(f) = 0.189545
    Cl(r) = -0.118677

Time = 45

smoothSolver:  Solving for Ux, Initial residual = 0.00234195, Final residual = 0.000192906, No Iterations 11
smoothSolver:  Solving for Uy, Initial residual = 0.0511339, Final residual = 0.00497174, No Iterations 10
smoothSolver:  Solving for Uz, Initial residual = 0.0396752, Final residual = 0.00377985, No Iterations 10
GAMG:  Solving for p, Initial residual = 0.0196359, Final residual = 0.000150161, No Iterations 4
time step continuity errors : sum local = 0.000241041, global = -2.37534e-06, cumulative = -4.25973e-05
smoothSolver:  Solving for omega, Initial residual = 0.000267091, Final residual = 1.4285e-05, No Iterations 4
smoothSolver:  Solving for k, Initial residual = 0.00380616, Final residual = 0.000267742, No Iterations 4
ExecutionTime = 9.87 s  ClockTime = 11 s

forceCoeffs forceCoeffs1 write:
    Cm    = 0.153373
    Cd    = 0.389753
    Cl    = 0.0710906
    Cl(f) = 0.188918
    Cl(r) = -0.117828

Time = 46

smoothSolver:  Solving for Ux, Initial residual = 0.00228683, Final residual = 0.000188708, No Iterations 11
smoothSolver:  Solving for Uy, Initial residual = 0.0506876, Final residual = 0.00491948, No Iterations 10
smoothSolver:  Solving for Uz, Initial residual = 0.0388038, Final residual = 0.00368807, No Iterations 10
GAMG:  Solving for p, Initial residual = 0.0193741, Final residual = 0.000146249, No Iterations 4
time step continuity errors : sum local = 0.000233703, global = -2.52001e-06, cumulative = -4.51173e-05
smoothSolver:  Solving for omega, Initial residual = 0.000260561, Final residual = 1.38886e-05, No Iterations 4
bounding omega, min: -52.7797 max: 86820.2 average: 911.982
[...]
smoothSolver:  Solving for k, Initial residual = 0.00206804, Final residual = 0.000140001, No Iterations 4
ExecutionTime = 11.27 s  ClockTime = 13 s

forceCoeffs forceCoeffs1 write:
    Cm    = 0.154476
    Cd    = 0.404004
    Cl    = 0.0777826
    Cl(f) = 0.193367
    Cl(r) = -0.115585

Time = 80

smoothSolver:  Solving for Ux, Initial residual = 0.00102375, Final residual = 9.78322e-05, No Iterations 10
smoothSolver:  Solving for Uy, Initial residual = 0.0248411, Final residual = 0.00205563, No Iterations 10
smoothSolver:  Solving for Uz, Initial residual = 0.0213746, Final residual = 0.00185332, No Iterations 10
GAMG:  Solving for p, Initial residual = 0.0107541, Final residual = 7.73799e-05, No Iterations 4
time step continuity errors : sum local = 0.00011716, global = 8.81001e-08, cumulative = -3.84773e-05
smoothSolver:  Solving for omega, Initial residual = 0.000154386, Final residual = 1.52737e-05, No Iterations 3
smoothSolver:  Solving for k, Initial residual = 0.00205446, Final residual = 0.000138589, No Iterations 4
ExecutionTime = 11.3 s  ClockTime = 13 s

forceCoeffs forceCoeffs1 write:
    Cm    = 0.154322
    Cd    = 0.404282
    Cl    = 0.0782919
    Cl(f) = 0.193468
    Cl(r) = -0.115176

Time = 81

smoothSolver:  Solving for Ux, Initial residual = 0.0010011, Final residual = 9.57832e-05, No Iterations 10
smoothSolver:  Solving for Uy, Initial residual = 0.0243263, Final residual = 0.00202645, No Iterations 10
smoothSolver:  Solving for Uz, Initial residual = 0.0208386, Final residual = 0.00180434, No Iterations 10
GAMG:  Solving for p, Initial residual = 0.0106489, Final residual = 7.60868e-05, No Iterations 4
time step continuity errors : sum local = 0.000115225, global = -4.26242e-07, cumulative = -3.89035e-05
smoothSolver:  Solving for omega, Initial residual = 0.000153328, Final residual = 1.51666e-05, No Iterations 3
smoothSolver:  Solving for k, Initial residual = 0.0020378, Final residual = 0.00013699, No Iterations 4
ExecutionTime = 11.34 s  ClockTime = 13 s

forceCoeffs forceCoeffs1 write:
    Cm    = 0.154183
    Cd    = 0.404658
    Cl    = 0.0785756
    Cl(f) = 0.19347
    Cl(r) = -0.114895

Time = 82

smoothSolver:  Solving for Ux, Initial residual = 0.000981462, Final residual = 9.44282e-05, No Iterations 10
smoothSolver:  Solving for Uy, Initial residual = 0.0239508, Final residual = 0.00200626, No Iterations 10
smoothSolver:  Solving for Uz, Initial residual = 0.0203689, Final residual = 0.00177187, No Iterations 10
GAMG:  Solving for p, Initial residual = 0.0105349, Final residual = 7.70291e-05, No Iterations 4
time step continuity errors : sum local = 0.000116621, global = -8.56071e-07, cumulative = -3.97596e-05
smoothSolver:  Solving for omega, Initial residual = 0.000151987, Final residual = 1.5054e-05, No Iterations 3
smoothSolver:  Solving for k, Initial residual = 0.00202447, Final residual = 0.000135629, No Iterations 4
ExecutionTime = 11.38 s  ClockTime = 13 s

forceCoeffs forceCoeffs1 write:
    Cm    = 0.154153
    Cd    = 0.405049
    Cl    = 0.0786284
    Cl(f) = 0.193467
    Cl(r) = -0.114839

Time = 83

smoothSolver:  Solving for Ux, Initial residual = 0.000969204, Final residual = 9.37856e-05, No Iterations 10
smoothSolver:  Solving for Uy, Initial residual = 0.0237203, Final residual = 0.00199192, No Iterations 10
smoothSolver:  Solving for Uz, Initial residual = 0.0201186, Final residual = 0.00175482, No Iterations 10
GAMG:  Solving for p, Initial residual = 0.0104251, Final residual = 7.7673e-05, No Iterations 4
time step continuity errors : sum local = 0.000117529, global = -8.74994e-07, cumulative = -4.06346e-05
smoothSolver:  Solving for omega, Initial residual = 0.00015041, Final residual = 1.49191e-05, No Iterations 3
smoothSolver:  Solving for k, Initial residual = 0.00201016, Final residual = 0.000134514, No Iterations 4
ExecutionTime = 11.42 s  ClockTime = 13 s

forceCoeffs forceCoeffs1 write:
    Cm    = 0.154203
    Cd    = 0.405381
    Cl    = 0.07833
    Cl(f) = 0.193368
    Cl(r) = -0.115038

Time = 84

smoothSolver:  Solving for Ux, Initial residual = 0.000964751, Final residual = 9.34808e-05, No Iterations 10
smoothSolver:  Solving for Uy, Initial residual = 0.0236614, Final residual = 0.00198558, No Iterations 10
smoothSolver:  Solving for Uz, Initial residual = 0.0200918, Final residual = 0.00175348, No Iterations 10
GAMG:  Solving for p, Initial residual = 0.0103543, Final residual = 7.83184e-05, No Iterations 4
time step continuity errors : sum local = 0.000118389, global = -7.51568e-07, cumulative = -4.13862e-05
smoothSolver:  Solving for omega, Initial residual = 0.000149351, Final residual = 1.48098e-05, No Iterations 3
smoothSolver:  Solving for k, Initial residual = 0.00200094, Final residual = 0.000133445, No Iterations 4
ExecutionTime = 11.46 s  ClockTime = 13 s

forceCoeffs forceCoeffs1 write:
    Cm    = 0.154387
    Cd    = 0.405645
    Cl    = 0.0780382
    Cl(f) = 0.193406
    Cl(r) = -0.115368

Time = 85

smoothSolver:  Solving for Ux, Initial residual = 0.00096477, Final residual = 9.35424e-05, No Iterations 10
smoothSolver:  Solving for Uy, Initial residual = 0.023701, Final residual = 0.00198292, No Iterations 10
smoothSolver:  Solving for Uz, Initial residual = 0.0201785, Final residual = 0.00176344, No Iterations 10
GAMG:  Solving for p, Initial residual = 0.0103106, Final residual = 7.90751e-05, No Iterations 4
time step continuity errors : sum local = 0.000119407, global = -4.67326e-07, cumulative = -4.18535e-05
smoothSolver:  Solving for omega, Initial residual = 0.000148363, Final residual = 1.46786e-05, No Iterations 3
smoothSolver:  Solving for k, Initial residual = 0.00199289, Final residual = 0.000132477, No Iterations 4
ExecutionTime = 11.49 s  ClockTime = 13 s

forceCoeffs forceCoeffs1 write:
    Cm    = 0.154613
    Cd    = 0.405875
    Cl    = 0.0777926
    Cl(f) = 0.193509
    Cl(r) = -0.115717

Time = 86

smoothSolver:  Solving for Ux, Initial residual = 0.000967748, Final residual = 9.37606e-05, No Iterations 10
smoothSolver:  Solving for Uy, Initial residual = 0.0236796, Final residual = 0.00197889, No Iterations 10
smoothSolver:  Solving for Uz, Initial residual = 0.0202753, Final residual = 0.0017757, No Iterations 10
GAMG:  Solving for p, Initial residual = 0.0102985, Final residual = 7.99915e-05, No Iterations 4
time step continuity errors : sum local = 0.000120686, global = -2.14491e-07, cumulative = -4.2068e-05
smoothSolver:  Solving for omega, Initial residual = 0.000147926, Final residual = 1.45879e-05, No Iterations 3
smoothSolver:  Solving for k, Initial residual = 0.00198431, Final residual = 0.00013158, No Iterations 4
ExecutionTime = 11.53 s  ClockTime = 13 s

forceCoeffs forceCoeffs1 write:
    Cm    = 0.154864
    Cd    = 0.406053
    Cl    = 0.077733
    Cl(f) = 0.193731
    Cl(r) = -0.115998

Time = 87

smoothSolver:  Solving for Ux, Initial residual = 0.000968776, Final residual = 9.39628e-05, No Iterations 10
smoothSolver:  Solving for Uy, Initial residual = 0.0235534, Final residual = 0.00197058, No Iterations 10
smoothSolver:  Solving for Uz, Initial residual = 0.0203057, Final residual = 0.00178658, No Iterations 10
GAMG:  Solving for p, Initial residual = 0.0102828, Final residual = 7.9843e-05, No Iterations 4
time step continuity errors : sum local = 0.000120394, global = -1.45771e-08, cumulative = -4.20825e-05
smoothSolver:  Solving for omega, Initial residual = 0.000147737, Final residual = 1.45094e-05, No Iterations 3
smoothSolver:  Solving for k, Initial residual = 0.00197675, Final residual = 0.000130869, No Iterations 4
ExecutionTime = 11.57 s  ClockTime = 13 s

forceCoeffs forceCoeffs1 write:
    Cm    = 0.155118
    Cd    = 0.406276
    Cl    = 0.0776889
    Cl(f) = 0.193962
    Cl(r) = -0.116273

Time = 88

smoothSolver:  Solving for Ux, Initial residual = 0.000966625, Final residual = 9.42819e-05, No Iterations 10
smoothSolver:  Solving for Uy, Initial residual = 0.0233193, Final residual = 0.00195442, No Iterations 10
smoothSolver:  Solving for Uz, Initial residual = 0.0202707, Final residual = 0.00179913, No Iterations 10
GAMG:  Solving for p, Initial residual = 0.0102338, Final residual = 7.83049e-05, No Iterations 4
time step continuity errors : sum local = 0.000118035, global = 2.63925e-07, cumulative = -4.18186e-05
smoothSolver:  Solving for omega, Initial residual = 0.000147557, Final residual = 1.45263e-05, No Iterations 3
smoothSolver:  Solving for k, Initial residual = 0.00197211, Final residual = 0.000130517, No Iterations 4
ExecutionTime = 11.61 s  ClockTime = 13 s

forceCoeffs forceCoeffs1 write:
    Cm    = 0.155435
    Cd    = 0.406531
    Cl    = 0.0777317
    Cl(f) = 0.194301
    Cl(r) = -0.11657

Time = 89

smoothSolver:  Solving for Ux, Initial residual = 0.000963217, Final residual = 9.46053e-05, No Iterations 10
smoothSolver:  Solving for Uy, Initial residual = 0.0230739, Final residual = 0.00193899, No Iterations 10
smoothSolver:  Solving for Uz, Initial residual = 0.0201853, Final residual = 0.00181133, No Iterations 10
GAMG:  Solving for p, Initial residual = 0.0101619, Final residual = 7.66263e-05, No Iterations 4
time step continuity errors : sum local = 0.000115499, global = 7.12328e-07, cumulative = -4.11063e-05
smoothSolver:  Solving for omega, Initial residual = 0.00014774, Final residual = 1.45826e-05, No Iterations 3
smoothSolver:  Solving for k, Initial residual = 0.00196723, Final residual = 0.00013052, No Iterations 4
ExecutionTime = 11.64 s  ClockTime = 13 s

forceCoeffs forceCoeffs1 write:
    Cm    = 0.155864
    Cd    = 0.40689
    Cl    = 0.0776723
    Cl(f) = 0.1947
    Cl(r) = -0.117028

Time = 90

smoothSolver:  Solving for Ux, Initial residual = 0.000958767, Final residual = 9.47059e-05, No Iterations 10
smoothSolver:  Solving for Uy, Initial residual = 0.0228627, Final residual = 0.00193301, No Iterations 10
smoothSolver:  Solving for Uz, Initial residual = 0.0200555, Final residual = 0.00181062, No Iterations 10
GAMG:  Solving for p, Initial residual = 0.0100696, Final residual = 7.56962e-05, No Iterations 4
time step continuity errors : sum local = 0.00011416, global = 7.37354e-07, cumulative = -4.03689e-05
smoothSolver:  Solving for omega, Initial residual = 0.000147499, Final residual = 1.46178e-05, No Iterations 3
smoothSolver:  Solving for k, Initial residual = 0.00195815, Final residual = 0.000130401, No Iterations 4
ExecutionTime = 11.68 s  ClockTime = 13 s

forceCoeffs forceCoeffs1 write:
    Cm    = 0.156464
    Cd    = 0.407298
    Cl    = 0.0775397
    Cl(f) = 0.195234
    Cl(r) = -0.117694

Time = 91

smoothSolver:  Solving for Ux, Initial residual = 0.00095185, Final residual = 9.44125e-05, No Iterations 10
smoothSolver:  Solving for Uy, Initial residual = 0.022689, Final residual = 0.0019319, No Iterations 10
smoothSolver:  Solving for Uz, Initial residual = 0.0198906, Final residual = 0.00179325, No Iterations 10
GAMG:  Solving for p, Initial residual = 0.00999139, Final residual = 7.55993e-05, No Iterations 4
time step continuity errors : sum local = 0.000114184, global = 8.95903e-07, cumulative = -3.9473e-05
smoothSolver:  Solving for omega, Initial residual = 0.000146879, Final residual = 1.45919e-05, No Iterations 3
smoothSolver:  Solving for k, Initial residual = 0.00194309, Final residual = 0.000130009, No Iterations 4
ExecutionTime = 11.72 s  ClockTime = 13 s

forceCoeffs forceCoeffs1 write:
    Cm    = 0.157197
    Cd    = 0.407799
    Cl    = 0.0771604
    Cl(f) = 0.195777
    Cl(r) = -0.118616

Time = 92

smoothSolver:  Solving for Ux, Initial residual = 0.000942527, Final residual = 9.37049e-05, No Iterations 10
smoothSolver:  Solving for Uy, Initial residual = 0.0225779, Final residual = 0.00192622, No Iterations 10
smoothSolver:  Solving for Uz, Initial residual = 0.0197543, Final residual = 0.00176691, No Iterations 10
GAMG:  Solving for p, Initial residual = 0.00992834, Final residual = 7.62697e-05, No Iterations 4
time step continuity errors : sum local = 0.000115442, global = 8.91294e-07, cumulative = -3.85817e-05
smoothSolver:  Solving for omega, Initial residual = 0.000146398, Final residual = 1.45437e-05, No Iterations 3
smoothSolver:  Solving for k, Initial residual = 0.0019238, Final residual = 0.000129241, No Iterations 4
ExecutionTime = 11.76 s  ClockTime = 13 s

forceCoeffs forceCoeffs1 write:
    Cm    = 0.157984
    Cd    = 0.408273
    Cl    = 0.0766214
    Cl(f) = 0.196295
    Cl(r) = -0.119673

Time = 93

smoothSolver:  Solving for Ux, Initial residual = 0.000935344, Final residual = 9.32277e-05, No Iterations 10
smoothSolver:  Solving for Uy, Initial residual = 0.022581, Final residual = 0.00191739, No Iterations 10
smoothSolver:  Solving for Uz, Initial residual = 0.0196583, Final residual = 0.00173551, No Iterations 10
GAMG:  Solving for p, Initial residual = 0.00989506, Final residual = 7.74323e-05, No Iterations 4
time step continuity errors : sum local = 0.000117485, global = 9.16435e-07, cumulative = -3.76653e-05
smoothSolver:  Solving for omega, Initial residual = 0.000145541, Final residual = 1.43992e-05, No Iterations 3
smoothSolver:  Solving for k, Initial residual = 0.00190776, Final residual = 0.000128189, No Iterations 4
ExecutionTime = 11.8 s  ClockTime = 13 s

forceCoeffs forceCoeffs1 write:
    Cm    = 0.158681
    Cd    = 0.408679
    Cl    = 0.0757911
    Cl(f) = 0.196577
    Cl(r) = -0.120786

Time = 94

smoothSolver:  Solving for Ux, Initial residual = 0.00093287, Final residual = 9.30235e-05, No Iterations 10
smoothSolver:  Solving for Uy, Initial residual = 0.0226447, Final residual = 0.00190045, No Iterations 10
smoothSolver:  Solving for Uz, Initial residual = 0.0195568, Final residual = 0.00170369, No Iterations 10
GAMG:  Solving for p, Initial residual = 0.0098621, Final residual = 7.78053e-05, No Iterations 4
time step continuity errors : sum local = 0.000118321, global = 9.02392e-07, cumulative = -3.67629e-05
smoothSolver:  Solving for omega, Initial residual = 0.000145014, Final residual = 1.42711e-05, No Iterations 3
smoothSolver:  Solving for k, Initial residual = 0.00189263, Final residual = 0.000127021, No Iterations 4
ExecutionTime = 11.84 s  ClockTime = 13 s

forceCoeffs forceCoeffs1 write:
    Cm    = 0.15919
    Cd    = 0.40892
    Cl    = 0.0749685
    Cl(f) = 0.196675
    Cl(r) = -0.121706

Time = 95

smoothSolver:  Solving for Ux, Initial residual = 0.00093148, Final residual = 9.22642e-05, No Iterations 10
smoothSolver:  Solving for Uy, Initial residual = 0.0226978, Final residual = 0.0018746, No Iterations 10
smoothSolver:  Solving for Uz, Initial residual = 0.0194335, Final residual = 0.00167139, No Iterations 10
GAMG:  Solving for p, Initial residual = 0.00984093, Final residual = 7.72389e-05, No Iterations 4
time step continuity errors : sum local = 0.000117698, global = 9.23735e-07, cumulative = -3.58392e-05
smoothSolver:  Solving for omega, Initial residual = 0.000143539, Final residual = 1.41019e-05, No Iterations 3
smoothSolver:  Solving for k, Initial residual = 0.00187262, Final residual = 0.000126179, No Iterations 4
ExecutionTime = 11.88 s  ClockTime = 13 s

forceCoeffs forceCoeffs1 write:
    Cm    = 0.159438
    Cd    = 0.409049
    Cl    = 0.0742173
    Cl(f) = 0.196547
    Cl(r) = -0.12233

Time = 96

smoothSolver:  Solving for Ux, Initial residual = 0.000929625, Final residual = 9.11008e-05, No Iterations 10
smoothSolver:  Solving for Uy, Initial residual = 0.0226473, Final residual = 0.00184684, No Iterations 10
smoothSolver:  Solving for Uz, Initial residual = 0.0192604, Final residual = 0.00163409, No Iterations 10
GAMG:  Solving for p, Initial residual = 0.0098058, Final residual = 7.51259e-05, No Iterations 4
time step continuity errors : sum local = 0.000114637, global = 8.57378e-07, cumulative = -3.49818e-05
smoothSolver:  Solving for omega, Initial residual = 0.000142151, Final residual = 1.396e-05, No Iterations 3
smoothSolver:  Solving for k, Initial residual = 0.0018533, Final residual = 0.0001254, No Iterations 4
ExecutionTime = 11.92 s  ClockTime = 13 s

forceCoeffs forceCoeffs1 write:
    Cm    = 0.159472
    Cd    = 0.409102
    Cl    = 0.0736226
    Cl(f) = 0.196283
    Cl(r) = -0.12266

Time = 97

smoothSolver:  Solving for Ux, Initial residual = 0.000924982, Final residual = 8.95501e-05, No Iterations 10
smoothSolver:  Solving for Uy, Initial residual = 0.0224006, Final residual = 0.00182269, No Iterations 10
smoothSolver:  Solving for Uz, Initial residual = 0.0189883, Final residual = 0.00159697, No Iterations 10
GAMG:  Solving for p, Initial residual = 0.00974861, Final residual = 7.21365e-05, No Iterations 4
time step continuity errors : sum local = 0.000110164, global = 3.78526e-07, cumulative = -3.46033e-05
smoothSolver:  Solving for omega, Initial residual = 0.000140413, Final residual = 1.37934e-05, No Iterations 3
smoothSolver:  Solving for k, Initial residual = 0.00182871, Final residual = 0.00012455, No Iterations 4
ExecutionTime = 11.96 s  ClockTime = 13 s

forceCoeffs forceCoeffs1 write:
    Cm    = 0.159334
    Cd    = 0.409158
    Cl    = 0.0731563
    Cl(f) = 0.195912
    Cl(r) = -0.122756

Time = 98

smoothSolver:  Solving for Ux, Initial residual = 0.000916611, Final residual = 8.79071e-05, No Iterations 10
smoothSolver:  Solving for Uy, Initial residual = 0.0219663, Final residual = 0.00180089, No Iterations 10
smoothSolver:  Solving for Uz, Initial residual = 0.0186016, Final residual = 0.00155801, No Iterations 10
GAMG:  Solving for p, Initial residual = 0.00966705, Final residual = 7.0004e-05, No Iterations 4
time step continuity errors : sum local = 0.000106927, global = -4.12973e-07, cumulative = -3.50163e-05
smoothSolver:  Solving for omega, Initial residual = 0.00013957, Final residual = 1.36891e-05, No Iterations 3
smoothSolver:  Solving for k, Initial residual = 0.00181142, Final residual = 0.0001235, No Iterations 4
ExecutionTime = 11.99 s  ClockTime = 13 s

forceCoeffs forceCoeffs1 write:
    Cm    = 0.159161
    Cd    = 0.409285
    Cl    = 0.0728461
    Cl(f) = 0.195584
    Cl(r) = -0.122738

Time = 99

smoothSolver:  Solving for Ux, Initial residual = 0.000904861, Final residual = 8.62795e-05, No Iterations 10
smoothSolver:  Solving for Uy, Initial residual = 0.0214119, Final residual = 0.00177223, No Iterations 10
smoothSolver:  Solving for Uz, Initial residual = 0.0181812, Final residual = 0.00152195, No Iterations 10
GAMG:  Solving for p, Initial residual = 0.00958037, Final residual = 7.00772e-05, No Iterations 4
time step continuity errors : sum local = 0.000106977, global = -7.36976e-07, cumulative = -3.57532e-05
smoothSolver:  Solving for omega, Initial residual = 0.000139024, Final residual = 1.35974e-05, No Iterations 3
smoothSolver:  Solving for k, Initial residual = 0.00179411, Final residual = 0.000122395, No Iterations 4
ExecutionTime = 12.03 s  ClockTime = 13 s

forceCoeffs forceCoeffs1 write:
    Cm    = 0.158998
    Cd    = 0.40953
    Cl    = 0.0725556
    Cl(f) = 0.195276
    Cl(r) = -0.12272

Time = 100

smoothSolver:  Solving for Ux, Initial residual = 0.00089042, Final residual = 8.48126e-05, No Iterations 10
smoothSolver:  Solving for Uy, Initial residual = 0.0209307, Final residual = 0.00173552, No Iterations 10
smoothSolver:  Solving for Uz, Initial residual = 0.0178471, Final residual = 0.00149521, No Iterations 10
GAMG:  Solving for p, Initial residual = 0.00950159, Final residual = 7.19641e-05, No Iterations 4
time step continuity errors : sum local = 0.000109733, global = -6.82671e-07, cumulative = -3.64359e-05
smoothSolver:  Solving for omega, Initial residual = 0.000138428, Final residual = 1.35079e-05, No Iterations 3
smoothSolver:  Solving for k, Initial residual = 0.00177818, Final residual = 0.000121486, No Iterations 4
ExecutionTime = 12.08 s  ClockTime = 14 s

forceCoeffs forceCoeffs1 write:
    Cm    = 0.158932
    Cd    = 0.409844
    Cl    = 0.0723273
    Cl(f) = 0.195096
    Cl(r) = -0.122768

End

Finalising parallel run
