/*---------------------------------------------------------------------------*\
  =========                 |
  \\      /  F ield         | OpenFOAM: The Open Source CFD Toolbox
   \\    /   O peration     | Website:  https://openfoam.org
    \\  /    A nd           | Version:  7
     \\/     M anipulation  |
\*---------------------------------------------------------------------------*/
Build  : 7
Exec   : snappyHexMesh -parallel -overwrite
Date   : Oct 14 2020
Time   : 11:59:57
Host   : "cpu-p-281"
PID    : 245238
I/O    : uncollated
Case   : /rds/user/hpcbras1/hpc-work/csd3/cclake-ib-gcc9-ompi3-ucx/openfoam/Openfoam_Mbike_1
nProcs : 32
Slaves : 
31
(
"cpu-p-281.245239"
"cpu-p-281.245240"
"cpu-p-281.245241"
"cpu-p-281.245242"
"cpu-p-281.245243"
"cpu-p-281.245244"
"cpu-p-281.245245"
"cpu-p-281.245246"
"cpu-p-281.245247"
"cpu-p-281.245248"
"cpu-p-281.245249"
"cpu-p-281.245250"
"cpu-p-281.245251"
"cpu-p-281.245252"
"cpu-p-281.245253"
"cpu-p-281.245254"
"cpu-p-281.245255"
"cpu-p-281.245256"
"cpu-p-281.245257"
"cpu-p-281.245258"
"cpu-p-281.245259"
"cpu-p-281.245260"
"cpu-p-281.245261"
"cpu-p-281.245262"
"cpu-p-281.245263"
"cpu-p-281.245264"
"cpu-p-281.245265"
"cpu-p-281.245266"
"cpu-p-281.245267"
"cpu-p-281.245268"
"cpu-p-281.245269"
)

Pstream initialized with:
    floatTransfer      : 0
    nProcsSimpleSum    : 0
    commsType          : nonBlocking
    polling iterations : 0
sigFpe : Enabling floating point exception trapping (FOAM_SIGFPE).
fileModificationChecking : Monitoring run-time modified files using timeStampMaster (fileModificationSkew 10)
allowSystemOperations : Allowing user-supplied system call operations

// * * * * * * * * * * * * * * * * * * * * * * * * * * * * * * * * * * * * * //
Create time

Create mesh for time = 0

Read mesh in = 0.01 s

Overall mesh bounding box  : (-5 -4 0) (15 4 8)
Relative tolerance         : 1e-06
Absolute matching distance : 2.29783e-05

Reading refinement surfaces.
Read refinement surfaces in = 1.37 s

Reading refinement shells.
Refinement level 4 for all cells inside refinementBox
Read refinement shells in = 0 s

Setting refinement level of surface to be consistent with shells.
Checked shell refinement in = 1.17 s

Reading features.
Read edgeMesh motorBike.eMesh
    points      : 20665
    edges       : 20867
    boundingBox : (-0.241214 -0.337971 -4.232e-05) (1.75115 0.329368 1.21979)

Refinement level according to distance to "motorBike.eMesh" (20665 points, 20867 edges).
    level 6 for all cells within 0 metre.
Read features in = 0.05 s


Determining initial surface intersections
-----------------------------------------

Edge intersection testing:
    Number of edges             : 32256
    Number of edges to retest   : 32256
    Number of intersected edges : 26
Calculated surface intersections in = 0.01 s

Initial mesh : cells:10240  faces:32256  points:11849
Cells per refinement level:
    0	10240

Adding patches for surface regions
----------------------------------

Patch Type                Region                        
----- ----                ------                        
motorBike:

5     wall                motorBike_frt-fairing:001%1   
6     wall                motorBike_windshield:002%2    
7     wall                motorBike_rr-wh-rim:005%5     
8     wall                motorBike_rr-wh-rim:010%10    
9     wall                motorBike_fr-wh-rim:011%11    
10    wall                motorBike_fr-wh-brake-disk:012%12
11    wall                motorBike_frame:016-shadow%13 
12    wall                motorBike_rear-susp:014%14    
13    wall                motorBike_rear-susp:014-shadow%15
14    wall                motorBike_frame:016%16        
15    wall                motorBike_rr-wh-rim:005-shadow%17
16    wall                motorBike_rr-wh-chain-hub:022%22
17    wall                motorBike_rearseat%24         
18    wall                motorBike_frt-fairing%25      
19    wall                motorBike_windshield%26       
20    wall                motorBike_headlights%27       
21    wall                motorBike_driversseat%28      
22    wall                motorBike_rear-body%29        
23    wall                motorBike_fuel-tank%30        
24    wall                motorBike_exhaust%31          
25    wall                motorBike_rr-wh-rim%32        
26    wall                motorBike_fr-mud-guard%33     
27    wall                motorBike_fr-wh-rim%34        
28    wall                motorBike_fr-wh-brake-disk%35 
29    wall                motorBike_fr-brake-caliper%36 
30    wall                motorBike_fr-wh-tyre%37       
31    wall                motorBike_hbars%38            
32    wall                motorBike_fr-forks%39         
33    wall                motorBike_chain%40            
34    wall                motorBike_rr-wh-tyre%41       
35    wall                motorBike_square-dial%42      
36    wall                motorBike_round-dial%43       
37    wall                motorBike_dial-holder%44      
38    wall                motorBike_rear-susp%45        
39    wall                motorBike_rear-brake-lights%46
40    wall                motorBike_rear-light-bracket%47
41    wall                motorBike_frame%48            
42    wall                motorBike_rear-mud-guard%49   
43    wall                motorBike_rear-susp-spring-damp%50
44    wall                motorBike_fairing-inner-plate%51
45    wall                motorBike_clutch-housing%52   
46    wall                motorBike_radiator%53         
47    wall                motorBike_water-pipe%54       
48    wall                motorBike_water-pump%55       
49    wall                motorBike_engine%56           
50    wall                motorBike_rear-shock-link%57  
51    wall                motorBike_rear-brake-fluid-pot-bracket%58
52    wall                motorBike_rear-brake-fluid-pot%59
53    wall                motorBike_footpeg%60          
54    wall                motorBike_rr-wh-chain-hub%61  
55    wall                motorBike_rear-brake-caliper%62
56    wall                motorBike_rider-helmet%65     
57    wall                motorBike_rider-visor%66      
58    wall                motorBike_rider-boots%67      
59    wall                motorBike_rider-gloves%68     
60    wall                motorBike_rider-body%69       
61    wall                motorBike_frame:0%70          
62    wall                motorBike_frt-fairing:001-shadow%74
63    wall                motorBike_windshield-shadow%75
64    wall                motorBike_fr-mud-guard-shadow%81
65    wall                motorBike_fr-wh-brake-disk-shadow%83
66    wall                motorBike_rear-mud-guard-shadow%84
67    wall                motorBike_rear-susp-spring-damp-shadow%85
68    wall                motorBike_radiator-shadow%86  
69    wall                motorBike_rear-shock-link-shadow%87
70    wall                motorBike_rear-brake-fluid-pot-bracket-shadow%88
[8]  Foam::decompositionMethod::New 
[8] {
[8]     numberOfSubdomains 32;
[8]     method          scotch;
[8]     simpleCoeffs
[8]     {
[8]         n               ( 4 1 1 );
[8]         delta           0.001;
[8]     }
[8]     hierarchicalCoeffs
[8]     {
[8]         n               ( 3 2 1 );
[8]         delta           0.001;
[8]         order           xyz;
[8]     }
[8]     manualCoeffs
[8]     {
[8]         dataFile        "cellDecomposition";
[8]     }
[8] }
[8] 
[8] Selecting decompositionMethod scotch
[9]  Foam::decompositionMethod::New 
[9] {
[9]     numberOfSubdomains 32;
[9]     method          scotch;
[9]     simpleCoeffs
[9]     {
[9]         n               ( 4 1 1 );
[9]         delta           0.001;
[9]     }
[9]     hierarchicalCoeffs
[9]     {
[9]         n               ( 3 2 1 );
[9]         delta           0.001;
[9]         order           xyz;
[9]     }
[9]     manualCoeffs
[9]     {
[9]         dataFile        "cellDecomposition";
[9]     }
[9] }
[9] 
[9] Selecting decompositionMethod scotch
[10]  Foam::decompositionMethod::New 
[10] {
[10]     numberOfSubdomains 32;
[10]     method          scotch;
[10]     simpleCoeffs
[10]     {
[10]         n               ( 4 1 1 );
[10]         delta           0.001;
[10]     }
[10]     hierarchicalCoeffs
[10]     {
[10]         n               ( 3 2 1 );
[10]         delta           0.001;
[10]         order           xyz;
[10]     }
[10]     manualCoeffs
[10]     {
[10]         dataFile        "cellDecomposition";
[10]     }
[10] }
[10] 
[10] Selecting decompositionMethod scotch
[11]  Foam::decompositionMethod::New 
[11] {
[11]     numberOfSubdomains 32;
[11]     method          scotch;
[11]     simpleCoeffs
[11]     {
[11]         n               ( 4 1 1 );
[11]         delta           0.001;
[11]     }
[11]     hierarchicalCoeffs
[11]     {
[11]         n               ( 3 2 1 );
[11]         delta           0.001;
[11]         order           xyz;
[11]     }
[11]     manualCoeffs
[11]     {
[11]         dataFile        "cellDecomposition";
[11]     }
[11] }
[11] 
[11] Selecting decompositionMethod scotch
[12]  Foam::decompositionMethod::New 
[12] {
[12]     numberOfSubdomains 32;
[12]     method          scotch;
[12]     simpleCoeffs
[12]     {
[12]         n               ( 4 1 1 );
[12]         delta           0.001;
[12]     }
[12]     hierarchicalCoeffs
[12]     {
[12]         n               ( 3 2 1 );
[12]         delta           0.001;
[12]         order           xyz;
[12]     }
[12]     manualCoeffs
[12]     {
[12]         dataFile        "cellDecomposition";
[12]     }
[12] }
[12] 
[12] Selecting decompositionMethod scotch
[13]  Foam::decompositionMethod::New 
[13] {
[13]     numberOfSubdomains 32;
[13]     method          scotch;
[13]     simpleCoeffs
[13]     {
[13]         n               ( 4 1 1 );
[13]         delta           0.001;
[13]     }
[13]     hierarchicalCoeffs
[13]     {
[13]         n               ( 3 2 1 );
[13]         delta           0.001;
[13]         order           xyz;
[13]     }
[13]     manualCoeffs
[13]     {
[13]         dataFile        "cellDecomposition";
[13]     }
[13] }
[13] 
[13] Selecting decompositionMethod scotch
[14]  Foam::decompositionMethod::New 
[14] {
[14]     numberOfSubdomains 32;
[14]     method          scotch;
[14]     simpleCoeffs
[14]     {
[14]         n               ( 4 1 1 );
[14]         delta           0.001;
[14]     }
[14]     hierarchicalCoeffs
[14]     {
[14]         n               ( 3 2 1 );
[14]         delta           0.001;
[14]         order           xyz;
[14]     }
[14]     manualCoeffs
[14]     {
[14]         dataFile        "cellDecomposition";
[14]     }
[14] }
[14] 
[14] Selecting decompositionMethod scotch
[15]  Foam::decompositionMethod::New 
[15] {
[15]     numberOfSubdomains 32;
[15]     method          scotch;
[15]     simpleCoeffs
[15]     {
[15]         n               ( 4 1 1 );
[15]         delta           0.001;
[15]     }
[15]     hierarchicalCoeffs
[15]     {
[15]         n               ( 3 2 1 );
[15]         delta           0.001;
[15]         order           xyz;
[15]     }
[15]     manualCoeffs
[15]     {
[15]         dataFile        "cellDecomposition";
[15]     }
[15] }
[15] 
[15] Selecting decompositionMethod scotch
[16]  Foam::decompositionMethod::New 
[16] {
[16]     numberOfSubdomains 32;
[16]     method          scotch;
[16]     simpleCoeffs
[16]     {
[16]         n               ( 4 1 1 );
[16]         delta           0.001;
[16]     }
[16]     hierarchicalCoeffs
[16]     {
[16]         n               ( 3 2 1 );
[16]         delta           0.001;
[16]         order           xyz;
[16]     }
[16]     manualCoeffs
[16]     {
[16]         dataFile        "cellDecomposition";
[16]     }
[16] }
[16] 
[16] Selecting decompositionMethod scotch
[17]  Foam::decompositionMethod::New 
[17] {
[17]     numberOfSubdomains 32;
[17]     method          scotch;
[17]     simpleCoeffs
[17]     {
[17]         n               ( 4 1 1 );
[17]         delta           0.001;
[17]     }
[17]     hierarchicalCoeffs
[17]     {
[17]         n               ( 3 2 1 );
[17]         delta           0.001;
[17]         order           xyz;
[17]     }
[17]     manualCoeffs
[17]     {
[17]         dataFile        "cellDecomposition";
[17]     }
[17] }
[17] 
[17] Selecting decompositionMethod scotch
[18]  Foam::decompositionMethod::New 
[18] {
[18]     numberOfSubdomains 32;
[18]     method          scotch;
[18]     simpleCoeffs
[18]     {
[18]         n               ( 4 1 1 );
[18]         delta           0.001;
[18]     }
[18]     hierarchicalCoeffs
[18]     {
[18]         n               ( 3 2 1 );
[18]         delta           0.001;
[18]         order           xyz;
[18]     }
[18]     manualCoeffs
[18]     {
[18]         dataFile        "cellDecomposition";
[18]     }
[18] }
[18] 
[18] Selecting decompositionMethod scotch
[19]  Foam::decompositionMethod::New 
[19] {
[19]     numberOfSubdomains 32;
[19]     method          scotch;
[19]     simpleCoeffs
[19]     {
[19]         n               ( 4 1 1 );
[19]         delta           0.001;
[19]     }
[19]     hierarchicalCoeffs
[19]     {
[19]         n               ( 3 2 1 );
[19]         delta           0.001;
[19]         order           xyz;
[19]     }
[19]     manualCoeffs
[19]     {
[19]         dataFile        "cellDecomposition";
[19]     }
[19] }
[19] 
[19] Selecting decompositionMethod scotch
[20]  Foam::decompositionMethod::New 
[20] {
[20]     numberOfSubdomains 32;
[20]     method          scotch;
[20]     simpleCoeffs
[20]     {
[20]         n               ( 4 1 1 );
[20]         delta           0.001;
[20]     }
[20]     hierarchicalCoeffs
[20]     {
[20]         n               ( 3 2 1 );
[20]         delta           0.001;
[20]         order           xyz;
[20]     }
[20]     manualCoeffs
[20]     {
[20]         dataFile        "cellDecomposition";
[20]     }
[20] }
[20] 
[20] Selecting decompositionMethod scotch
[21]  Foam::decompositionMethod::New 
[21] {
[21]     numberOfSubdomains 32;
[21]     method          scotch;
[21]     simpleCoeffs
[21]     {
[21]         n               ( 4 1 1 );
[21]         delta           0.001;
[21]     }
[21]     hierarchicalCoeffs
[21]     {
[21]         n               ( 3 2 1 );
[21]         delta           0.001;
[21]         order           xyz;
[21]     }
[21]     manualCoeffs
[21]     {
[21]         dataFile        "cellDecomposition";
[21]     }
[21] }
[21] 
[21] Selecting decompositionMethod scotch
[22]  Foam::decompositionMethod::New 
[22] {
[22]     numberOfSubdomains 32;
[22]     method          scotch;
[22]     simpleCoeffs
[22]     {
[22]         n               ( 4 1 1 );
[22]         delta           0.001;
[22]     }
[22]     hierarchicalCoeffs
[22]     {
[22]         n               ( 3 2 1 );
[22]         delta           0.001;
[22]         order           xyz;
[22]     }
[22]     manualCoeffs
[22]     {
[22]         dataFile        "cellDecomposition";
[22]     }
[22] }
[22] 
[22] Selecting decompositionMethod scotch
[23]  Foam::decompositionMethod::New 
[23] {
[23]     numberOfSubdomains 32;
[23]     method          scotch;
[23]     simpleCoeffs
[23]     {
[23]         n               ( 4 1 1 );
[23]         delta           0.001;
[23]     }
[23]     hierarchicalCoeffs
[23]     {
[23]         n               ( 3 2 1 );
[23]         delta           0.001;
[23]         order           xyz;
[23]     }
[23]     manualCoeffs
[23]     {
[23]         dataFile        "cellDecomposition";
[23]     }
[23] }
[23] 
[23] Selecting decompositionMethod scotch
[24]  Foam::decompositionMethod::New 
[24] {
[24]     numberOfSubdomains 32;
[24]     method          scotch;
[24]     simpleCoeffs
[24]     {
[24]         n               ( 4 1 1 );
[24]         delta           0.001;
[24]     }
[24]     hierarchicalCoeffs
[24]     {
[24]         n               ( 3 2 1 );
[24]         delta           0.001;
[24]         order           xyz;
[24]     }
[24]     manualCoeffs
[24]     {
[24]         dataFile        "cellDecomposition";
[24]     }
[24] }
[24] 
[24] Selecting decompositionMethod scotch
[25]  Foam::decompositionMethod::New 
[25] {
[25]     numberOfSubdomains 32;
[25]     method          scotch;
[25]     simpleCoeffs
[25]     {
[25]         n               ( 4 1 1 );
[25]         delta           0.001;
[25]     }
[25]     hierarchicalCoeffs
[25]     {
[25]         n               ( 3 2 1 );
[25]         delta           0.001;
[25]         order           xyz;
[25]     }
[25]     manualCoeffs
[25]     {
[25]         dataFile        "cellDecomposition";
[25]     }
[25] }
[25] 
[25] Selecting decompositionMethod scotch
[26]  Foam::decompositionMethod::New 
[26] {
[26]     numberOfSubdomains 32;
[26]     method          scotch;
[26]     simpleCoeffs
[26]     {
[26]         n               ( 4 1 1 );
[26]         delta           0.001;
[26]     }
[26]     hierarchicalCoeffs
[26]     {
[26]         n               ( 3 2 1 );
[26]         delta           0.001;
[26]         order           xyz;
[26]     }
[26]     manualCoeffs
[26]     {
[26]         dataFile        "cellDecomposition";
[26]     }
[26] }
[26] 
[26] Selecting decompositionMethod scotch
[27]  Foam::decompositionMethod::New 
[27] {
[27]     numberOfSubdomains 32;
[27]     method          scotch;
[27]     simpleCoeffs
[27]     {
[27]         n               ( 4 1 1 );
[27]         delta           0.001;
[27]     }
[27]     hierarchicalCoeffs
[27]     {
[27]         n               ( 3 2 1 );
[27]         delta           0.001;
[27]         order           xyz;
[27]     }
[27]     manualCoeffs
[27]     {
[27]         dataFile        "cellDecomposition";
[27]     }
[27] }
[27] 
[27] Selecting decompositionMethod scotch
[28]  Foam::decompositionMethod::New 
[28] {
[28]     numberOfSubdomains 32;
[28]     method          scotch;
[28]     simpleCoeffs
[28]     {
[28]         n               ( 4 1 1 );
[28]         delta           0.001;
[28]     }
[28]     hierarchicalCoeffs
[28]     {
[28]         n               ( 3 2 1 );
[28]         delta           0.001;
[28]         order           xyz;
[28]     }
[28]     manualCoeffs
[28]     {
[28]         dataFile        "cellDecomposition";
[28]     }
[28] }
[28] 
[28] Selecting decompositionMethod scotch
[29]  Foam::decompositionMethod::New 
[29] {
[29]     numberOfSubdomains 32;
[29]     method          scotch;
[29]     simpleCoeffs
[29]     {
[29]         n               ( 4 1 1 );
[29]         delta           0.001;
[29]     }
[29]     hierarchicalCoeffs
[29]     {
[29]         n               ( 3 2 1 );
[29]         delta           0.001;
[29]         order           xyz;
[29]     }
[29]     manualCoeffs
[29]     {
[29]         dataFile        "cellDecomposition";
[29]     }
[29] }
[29] 
[29] Selecting decompositionMethod scotch
[30]  Foam::decompositionMethod::New 
[30] {
[30]     numberOfSubdomains 32;
[30]     method          scotch;
[30]     simpleCoeffs
[30]     {
[30]         n               ( 4 1 1 );
[30]         delta           0.001;
[30]     }
[30]     hierarchicalCoeffs
[30]     {
[30]         n               ( 3 2 1 );
[30]         delta           0.001;
[30]         order           xyz;
[30]     }
[30]     manualCoeffs
[30]     {
[30]         dataFile        "cellDecomposition";
[30]     }
[30] }
[30] 
[30] Selecting decompositionMethod scotch
[31]  Foam::decompositionMethod::New 
[31] {
[31]     numberOfSubdomains 32;
[31]     method          scotch;
[31]     simpleCoeffs
[31]     {
[31]         n               ( 4 1 1 );
[31]         delta           0.001;
[31]     }
[31]     hierarchicalCoeffs
[31]     {
[31]         n               ( 3 2 1 );
[31]         delta           0.001;
[31]         order           xyz;
[31]     }
[31]     manualCoeffs
[31]     {
[31]         dataFile        "cellDecomposition";
[31]     }
[31] }
[31] 
[31] Selecting decompositionMethod scotch
71    wall                motorBike_rr-wh-chain-hub-shadow%89

Added patches in = 0.08 s

[0]  Foam::decompositionMethod::New 
[0] {
[0]     numberOfSubdomains 32;
[0]     method          scotch;
[0]     simpleCoeffs
[0]     {
[0]         n               ( 4 1 1 );
[0]         delta           0.001;
[0]     }
[0]     hierarchicalCoeffs
[0]     {
[0]         n               ( 3 2 1 );
[0]         delta           0.001;
[0]         order           xyz;
[0]     }
[0]     manualCoeffs
[0]     {
[0]         dataFile        "cellDecomposition";
[0]     }
[0] }
[0] 
[0] Selecting decompositionMethod scotch
Layer thickness specified as final layer and expansion ratio.

Refinement phase
----------------

[1]  Foam::decompositionMethod::New 
[1] {
[1]     numberOfSubdomains 32;
[1]     method          scotch;
[1]     simpleCoeffs
[1]     {
[1]         n               ( 4 1 1 );
[1]         delta           0.001;
[1]     }
[1]     hierarchicalCoeffs
[1]     {
[1]         n               ( 3 2 1 );
[1]         delta           0.001;
[1]         order           xyz;
[1]     }
[1]     manualCoeffs
[1]     {
[1]         dataFile        "cellDecomposition";
[1]     }
[1] }
[1] 
[1] Selecting decompositionMethod scotch
[2]  Foam::decompositionMethod::New 
[2] {
[2]     numberOfSubdomains 32;
[2]     method          scotch;
[2]     simpleCoeffs
[2]     {
[2]         n               ( 4 1 1 );
[2]         delta           0.001;
[2]     }
[2]     hierarchicalCoeffs
[2]     {
[2]         n               ( 3 2 1 );
[2]         delta           0.001;
[2]         order           xyz;
[2]     }
[2]     manualCoeffs
[2]     {
[2]         dataFile        "cellDecomposition";
[2]     }
[2] }
[2] 
[2] Selecting decompositionMethod scotch
[3]  Foam::decompositionMethod::New 
[3] {
[3]     numberOfSubdomains 32;
[3]     method          scotch;
[3]     simpleCoeffs
[3]     {
[3]         n               ( 4 1 1 );
[3]         delta           0.001;
[3]     }
[3]     hierarchicalCoeffs
[3]     {
[3]         n               ( 3 2 1 );
[3]         delta           0.001;
[3]         order           xyz;
[3]     }
[3]     manualCoeffs
[3]     {
[3]         dataFile        "cellDecomposition";
[3]     }
[3] }
[3] 
[3] Selecting decompositionMethod scotch
[4]  Foam::decompositionMethod::New 
[4] {
[4]     numberOfSubdomains 32;
[4]     method          scotch;
[4]     simpleCoeffs
[4]     {
[4]         n               ( 4 1 1 );
[4]         delta           0.001;
[4]     }
[4]     hierarchicalCoeffs
[4]     {
[4]         n               ( 3 2 1 );
[4]         delta           0.001;
[4]         order           xyz;
[4]     }
[4]     manualCoeffs
[4]     {
[4]         dataFile        "cellDecomposition";
[4]     }
[4] }
[4] 
[4] Selecting decompositionMethod scotch
[5]  Foam::decompositionMethod::New 
[5] {
[5]     numberOfSubdomains 32;
[5]     method          scotch;
[5]     simpleCoeffs
[5]     {
[5]         n               ( 4 1 1 );
[5]         delta           0.001;
[5]     }
[5]     hierarchicalCoeffs
[5]     {
[5]         n               ( 3 2 1 );
[5]         delta           0.001;
[5]         order           xyz;
[5]     }
[5]     manualCoeffs
[5]     {
[5]         dataFile        "cellDecomposition";
[5]     }
[5] }
[5] 
[5] Selecting decompositionMethod scotch
[6]  Foam::decompositionMethod::New 
[6] {
[6]     numberOfSubdomains 32;
[6]     method          scotch;
[6]     simpleCoeffs
[6]     {
[6]         n               ( 4 1 1 );
[6]         delta           0.001;
[6]     }
[6]     hierarchicalCoeffs
[6]     {
[6]         n               ( 3 2 1 );
[6]         delta           0.001;
[6]         order           xyz;
[6]     }
[6]     manualCoeffs
[6]     {
[6]         dataFile        "cellDecomposition";
[6]     }
[6] }
[6] 
[6] Selecting decompositionMethod scotch
[7]  Foam::decompositionMethod::New 
[7] {
[7]     numberOfSubdomains 32;
[7]     method          scotch;
[7]     simpleCoeffs
[7]     {
[7]         n               ( 4 1 1 );
[7]         delta           0.001;
[7]     }
[7]     hierarchicalCoeffs
[7]     {
[7]         n               ( 3 2 1 );
[7]         delta           0.001;
[7]         order           xyz;
[7]     }
[7]     manualCoeffs
[7]     {
[7]         dataFile        "cellDecomposition";
[7]     }
[7] }
[7] 
[7] Selecting decompositionMethod scotch
Found point (3.0001 3.0001 0.43) in cell 31 on processor 20

Feature refinement iteration 0
------------------------------

Marked for refinement due to explicit features             : 26 cells.
Determined cells to refine in = 0.03 s
Selected for feature refinement : 26 cells (out of 10240)
Edge intersection testing:
    Number of edges             : 32895
    Number of edges to retest   : 920
    Number of intersected edges : 127
Refined mesh in = 0.01 s
After refinement feature refinement iteration 0 : cells:10422  faces:32895  points:12135
Cells per refinement level:
    0	10214
    1	208
Balanced mesh in = 0.1 s
After balancing feature refinement iteration 0 : cells:10422  faces:32895  points:12135
Cells per refinement level:
    0	10214
    1	208

Feature refinement iteration 1
------------------------------

Marked for refinement due to explicit features             : 100 cells.
Determined cells to refine in = 0.04 s
Selected for feature refinement : 116 cells (out of 10422)
Edge intersection testing:
    Number of edges             : 35637
    Number of edges to retest   : 3652
    Number of intersected edges : 726
Refined mesh in = 0.01 s
After refinement feature refinement iteration 1 : cells:11234  faces:35637  points:13274
Cells per refinement level:
    0	10198
    1	236
    2	800
Balanced mesh in = 0.1 s
After balancing feature refinement iteration 1 : cells:11234  faces:35637  points:13274
Cells per refinement level:
    0	10198
    1	236
    2	800

Feature refinement iteration 2
------------------------------

Marked for refinement due to explicit features             : 447 cells.
Determined cells to refine in = 0.04 s
Selected for feature refinement : 531 cells (out of 11234)
Edge intersection testing:
    Number of edges             : 47952
    Number of edges to retest   : 16009
    Number of intersected edges : 3115
Refined mesh in = 0.03 s
After refinement feature refinement iteration 2 : cells:14951  faces:47952  points:18169
Cells per refinement level:
    0	10175
    1	359
    2	841
    3	3576
Balanced mesh in = 0.1 s
After balancing feature refinement iteration 2 : cells:14951  faces:47952  points:18169
Cells per refinement level:
    0	10175
    1	359
    2	841
    3	3576

Feature refinement iteration 3
------------------------------

Marked for refinement due to explicit features             : 1726 cells.
Determined cells to refine in = 0.05 s
Selected for feature refinement : 1999 cells (out of 14951)
Edge intersection testing:
    Number of edges             : 95388
    Number of edges to retest   : 62235
    Number of intersected edges : 11403
Refined mesh in = 0.03 s
After refinement feature refinement iteration 3 : cells:28944  faces:95388  points:37754
Cells per refinement level:
    0	10168
    1	380
    2	890
    3	3698
    4	13808
Balanced mesh in = 0.22 s
After balancing feature refinement iteration 3 : cells:28944  faces:95388  points:37754
Cells per refinement level:
    0	10168
    1	380
    2	890
    3	3698
    4	13808

Feature refinement iteration 4
------------------------------

Marked for refinement due to explicit features             : 5267 cells.
Determined cells to refine in = 0.05 s
Selected for feature refinement : 6709 cells (out of 28944)
Edge intersection testing:
    Number of edges             : 257892
    Number of edges to retest   : 222084
    Number of intersected edges : 36494
Refined mesh in = 0.05 s
After refinement feature refinement iteration 4 : cells:75907  faces:257892  points:107773
Cells per refinement level:
    0	10167
    1	371
    2	888
    3	3516
    4	18829
    5	42136
Balanced mesh in = 0.54 s
After balancing feature refinement iteration 4 : cells:75907  faces:257892  points:107773
Cells per refinement level:
    0	10167
    1	371
    2	888
    3	3516
    4	18829
    5	42136

Feature refinement iteration 5
------------------------------

Marked for refinement due to explicit features             : 13633 cells.
Determined cells to refine in = 0.08 s
Selected for feature refinement : 19632 cells (out of 75907)
Edge intersection testing:
    Number of edges             : 739599
    Number of edges to retest   : 688975
    Number of intersected edges : 103926
Refined mesh in = 0.1 s
After refinement feature refinement iteration 5 : cells:213331  faces:739599  points:320459
Cells per refinement level:
    0	10164
    1	378
    2	940
    3	3590
    4	18316
    5	70879
    6	109064
Balanced mesh in = 1.36 s
After balancing feature refinement iteration 5 : cells:213331  faces:739599  points:320459
Cells per refinement level:
    0	10164
    1	378
    2	940
    3	3590
    4	18316
    5	70879
    6	109064

Feature refinement iteration 6
------------------------------

Marked for refinement due to explicit features             : 0 cells.
Determined cells to refine in = 0.13 s
Selected for feature refinement : 0 cells (out of 213331)
Stopping refining since too few cells selected.


Surface refinement iteration 0
------------------------------

Marked for refinement due to surface intersection          : 5609 cells.
Marked for refinement due to curvature/regions             : 15957 cells.
Determined cells to refine in = 0.03 s
Selected for refinement : 22988 cells (out of 213331)
Edge intersection testing:
    Number of edges             : 1251612
    Number of edges to retest   : 968285
    Number of intersected edges : 151238
Refined mesh in = 0.16 s
After refinement surface refinement iteration 0 : cells:374247  faces:1251612  points:506541
Cells per refinement level:
    0	10162
    1	374
    2	1025
    3	3412
    4	18384
    5	104170
    6	236720
Balanced mesh in = 2.35 s
After balancing surface refinement iteration 0 : cells:374247  faces:1251612  points:506541
Cells per refinement level:
    0	10162
    1	374
    2	1025
    3	3412
    4	18384
    5	104170
    6	236720

Surface refinement iteration 1
------------------------------

Marked for refinement due to surface intersection          : 1968 cells.
Marked for refinement due to curvature/regions             : 7058 cells.
Determined cells to refine in = 0.05 s
Selected for refinement : 9675 cells (out of 374247)
Edge intersection testing:
    Number of edges             : 1472109
    Number of edges to retest   : 417137
    Number of intersected edges : 174965
Refined mesh in = 0.17 s
After refinement surface refinement iteration 1 : cells:441972  faces:1472109  points:591084
Cells per refinement level:
    0	10162
    1	370
    2	1029
    3	3403
    4	17896
    5	115928
    6	293184
Balanced mesh in = 2.65 s
After balancing surface refinement iteration 1 : cells:441972  faces:1472109  points:591084
Cells per refinement level:
    0	10162
    1	370
    2	1029
    3	3403
    4	17896
    5	115928
    6	293184

Surface refinement iteration 2
------------------------------

Marked for refinement due to surface intersection          : 301 cells.
Marked for refinement due to curvature/regions             : 1359 cells.
Determined cells to refine in = 0.05 s
Selected for refinement : 1777 cells (out of 441972)
Edge intersection testing:
    Number of edges             : 1512984
    Number of edges to retest   : 92050
    Number of intersected edges : 179245
Refined mesh in = 0.13 s
After refinement surface refinement iteration 2 : cells:454411  faces:1512984  points:607031
Cells per refinement level:
    0	10162
    1	370
    2	1027
    3	3390
    4	17741
    5	117665
    6	304056
Skipping balancing since max unbalance 0.0523239 is less than allowable 0.1

Surface refinement iteration 3
------------------------------

Marked for refinement due to surface intersection          : 6 cells.
Marked for refinement due to curvature/regions             : 110 cells.
Determined cells to refine in = 0.05 s
Selected for refinement : 135 cells (out of 454411)
Edge intersection testing:
    Number of edges             : 1515990
    Number of edges to retest   : 10604
    Number of intersected edges : 179401
Refined mesh in = 0.12 s
After refinement surface refinement iteration 3 : cells:455356  faces:1515990  points:608128
Cells per refinement level:
    0	10162
    1	370
    2	1027
    3	3386
    4	17752
    5	117723
    6	304936
Skipping balancing since max unbalance 0.0666948 is less than allowable 0.1

Surface refinement iteration 4
------------------------------

Marked for refinement due to surface intersection          : 0 cells.
Marked for refinement due to curvature/regions             : 7 cells.
Determined cells to refine in = 0.05 s
Selected for refinement : 8 cells (out of 455356)
Edge intersection testing:
    Number of edges             : 1516152
    Number of edges to retest   : 710
    Number of intersected edges : 179412
Refined mesh in = 0.12 s
After refinement surface refinement iteration 4 : cells:455412  faces:1516152  points:608174
Cells per refinement level:
    0	10162
    1	370
    2	1027
    3	3386
    4	17751
    5	117724
    6	304992
Skipping balancing since max unbalance 0.0680205 is less than allowable 0.1

Surface refinement iteration 5
------------------------------

Marked for refinement due to surface intersection          : 0 cells.
Marked for refinement due to curvature/regions             : 2 cells.
Determined cells to refine in = 0.05 s
Selected for refinement : 2 cells (out of 455412)
Edge intersection testing:
    Number of edges             : 1516194
    Number of edges to retest   : 182
    Number of intersected edges : 179415
Refined mesh in = 0.11 s
After refinement surface refinement iteration 5 : cells:455426  faces:1516194  points:608188
Cells per refinement level:
    0	10162
    1	370
    2	1027
    3	3386
    4	17751
    5	117722
    6	305008
Skipping balancing since max unbalance 0.0679455 is less than allowable 0.1

Surface refinement iteration 6
------------------------------

Marked for refinement due to surface intersection          : 0 cells.
Marked for refinement due to curvature/regions             : 0 cells.
Determined cells to refine in = 0.05 s
Selected for refinement : 0 cells (out of 455426)
Stopping refining since too few cells selected.


Removing mesh beyond surface intersections
------------------------------------------

Found point (3.0001 3.0001 0.43) in global region 0 out of 28 regions.
Keeping all cells in region 0 containing point (3.0001 3.0001 0.43)
Selected for keeping : 422830 cells.
Edge intersection testing:
    Number of edges             : 1441531
    Number of edges to retest   : 73218
    Number of intersected edges : 179416

Shell refinement iteration 0
----------------------------

Marked for refinement due to distance to explicit features : 0 cells.
Marked for refinement due to refinement shells             : 4703 cells.
Determined cells to refine in = 0.38 s
Selected for internal refinement : 63739 cells (out of 422830)
Edge intersection testing:
    Number of edges             : 2792758
    Number of edges to retest   : 2498366
    Number of intersected edges : 202163
Refined mesh in = 0.31 s
After refinement shell refinement iteration 0 : cells:869003  faces:2792758  points:1049688
Cells per refinement level:
    0	9913
    1	2039
    2	2584
    3	8216
    4	33185
    5	115826
    6	697240
Balanced mesh in = 4.61 s
After balancing shell refinement iteration 0 : cells:869003  faces:2792758  points:1049947
Cells per refinement level:
    0	9913
    1	2039
    2	2584
    3	8216
    4	33185
    5	115826
    6	697240

Shell refinement iteration 1
----------------------------

Marked for refinement due to distance to explicit features : 0 cells.
Marked for refinement due to refinement shells             : 10908 cells.
Determined cells to refine in = 0.07 s
Selected for internal refinement : 25158 cells (out of 869003)
Edge intersection testing:
    Number of edges             : 3329524
    Number of edges to retest   : 1222371
    Number of intersected edges : 209879
Refined mesh in = 0.41 s
After refinement shell refinement iteration 1 : cells:1045109  faces:3329524  points:1233888
Cells per refinement level:
    0	9622
    1	3022
    2	11135
    3	18200
    4	91707
    5	129039
    6	782384
Balanced mesh in = 5.46 s
After balancing shell refinement iteration 1 : cells:1045109  faces:3329524  points:1234128
Cells per refinement level:
    0	9622
    1	3022
    2	11135
    3	18200
    4	91707
    5	129039
    6	782384

Shell refinement iteration 2
----------------------------

Marked for refinement due to distance to explicit features : 0 cells.
Marked for refinement due to refinement shells             : 24804 cells.
Determined cells to refine in = 0.08 s
Selected for internal refinement : 27055 cells (out of 1045109)
Edge intersection testing:
    Number of edges             : 3906079
    Number of edges to retest   : 779377
    Number of intersected edges : 210279
Refined mesh in = 0.72 s
After refinement shell refinement iteration 2 : cells:1234494  faces:3906079  points:1431949
Cells per refinement level:
    0	9325
    1	4349
    2	9319
    3	85256
    4	208098
    5	132403
    6	785744
Balanced mesh in = 6.43 s
After balancing shell refinement iteration 2 : cells:1234494  faces:3906079  points:1432100
Cells per refinement level:
    0	9325
    1	4349
    2	9319
    3	85256
    4	208098
    5	132403
    6	785744

Shell refinement iteration 3
----------------------------

Marked for refinement due to distance to explicit features : 0 cells.
Marked for refinement due to refinement shells             : 78944 cells.
Determined cells to refine in = 0.09 s
Selected for internal refinement : 81939 cells (out of 1234494)
Edge intersection testing:
    Number of edges             : 5646217
    Number of edges to retest   : 2077312
    Number of intersected edges : 210371
Refined mesh in = 1.38 s
After refinement shell refinement iteration 3 : cells:1808067  faces:5646217  points:2025181
Cells per refinement level:
    0	9217
    1	4282
    2	11453
    3	52312
    4	811734
    5	132381
    6	786688
Balanced mesh in = 9.03 s
After balancing shell refinement iteration 3 : cells:1808067  faces:5646217  points:2025290
Cells per refinement level:
    0	9217
    1	4282
    2	11453
    3	52312
    4	811734
    5	132381
    6	786688

Shell refinement iteration 4
----------------------------

Marked for refinement due to distance to explicit features : 0 cells.
Marked for refinement due to refinement shells             : 20928 cells.
Determined cells to refine in = 0.12 s
Selected for internal refinement : 23194 cells (out of 1808067)
Edge intersection testing:
    Number of edges             : 6134986
    Number of edges to retest   : 724074
    Number of intersected edges : 210392
Refined mesh in = 0.46 s
After refinement shell refinement iteration 4 : cells:1970425  faces:6134986  points:2189347
Cells per refinement level:
    0	9185
    1	4338
    2	11064
    3	47296
    4	979150
    5	132408
    6	786984
Balanced mesh in = 8.79 s
After balancing shell refinement iteration 4 : cells:1970425  faces:6134986  points:2189416
Cells per refinement level:
    0	9185
    1	4338
    2	11064
    3	47296
    4	979150
    5	132408
    6	786984

Shell refinement iteration 5
----------------------------

Marked for refinement due to distance to explicit features : 0 cells.
Marked for refinement due to refinement shells             : 0 cells.
Determined cells to refine in = 0.13 s
Selected for internal refinement : 641 cells (out of 1970425)
Edge intersection testing:
    Number of edges             : 6148522
    Number of edges to retest   : 38972
    Number of intersected edges : 210411
Refined mesh in = 0.41 s
After refinement shell refinement iteration 5 : cells:1974912  faces:6148522  points:2193978
Cells per refinement level:
    0	9141
    1	4132
    2	15528
    3	47296
    4	979146
    5	132405
    6	787264
Skipping balancing since max unbalance 0.0120714 is less than allowable 0.1

Shell refinement iteration 6
----------------------------

Marked for refinement due to distance to explicit features : 0 cells.
Marked for refinement due to refinement shells             : 0 cells.
Determined cells to refine in = 0.12 s
Selected for internal refinement : 66 cells (out of 1974912)
Edge intersection testing:
    Number of edges             : 6149899
    Number of edges to retest   : 5225
    Number of intersected edges : 210426
Refined mesh in = 0.41 s
After refinement shell refinement iteration 6 : cells:1975374  faces:6149899  points:2194430
Cells per refinement level:
    0	9080
    1	4620
    2	15528
    3	47296
    4	979146
    5	132400
    6	787304
Skipping balancing since max unbalance 0.0122955 is less than allowable 0.1

Shell refinement iteration 7
----------------------------

Marked for refinement due to distance to explicit features : 0 cells.
Marked for refinement due to refinement shells             : 0 cells.
Determined cells to refine in = 0.12 s
Selected for internal refinement : 0 cells (out of 1975374)
Stopping refining since too few cells selected.


Dangling coarse cells refinement iteration 0
--------------------------------------------

Determined cells to refine in = 0.01 s
Selected for refinement : 303 cells (out of 1975374)
Edge intersection testing:
    Number of edges             : 6154426
    Number of edges to retest   : 37380
    Number of intersected edges : 210428
Refined mesh in = 0.41 s
After refinement coarse cell refinement iteration 0 : cells:1977495  faces:6154426  points:2195030
Cells per refinement level:
    0	9080
    1	4620
    2	15528
    3	47296
    4	979106
    5	132457
    6	789408
Skipping balancing since max unbalance 0.0121043 is less than allowable 0.1

Dangling coarse cells refinement iteration 1
--------------------------------------------

Determined cells to refine in = 0.06 s
Selected for refinement : 37 cells (out of 1977495)
Edge intersection testing:
    Number of edges             : 6154981
    Number of edges to retest   : 4788
    Number of intersected edges : 210428
Refined mesh in = 0.4 s
After refinement coarse cell refinement iteration 1 : cells:1977754  faces:6154981  points:2195104
Cells per refinement level:
    0	9080
    1	4620
    2	15528
    3	47296
    4	979101
    5	132465
    6	789664
Skipping balancing since max unbalance 0.0122322 is less than allowable 0.1

Dangling coarse cells refinement iteration 2
--------------------------------------------

Determined cells to refine in = 0.06 s
Selected for refinement : 11 cells (out of 1977754)
Edge intersection testing:
    Number of edges             : 6155146
    Number of edges to retest   : 1433
    Number of intersected edges : 210428
Refined mesh in = 0.38 s
After refinement coarse cell refinement iteration 2 : cells:1977831  faces:6155146  points:2195126
Cells per refinement level:
    0	9080
    1	4620
    2	15528
    3	47296
    4	979099
    5	132472
    6	789736
Skipping balancing since max unbalance 0.0122802 is less than allowable 0.1

Dangling coarse cells refinement iteration 3
--------------------------------------------

Determined cells to refine in = 0.06 s
Selected for refinement : 6 cells (out of 1977831)
Stopping refining since too few cells selected.


Dangling coarse cells refinement iteration 0
--------------------------------------------

Determined cells to refine in = 0.01 s
Selected for refinement : 52 cells (out of 1977831)
Edge intersection testing:
    Number of edges             : 6155770
    Number of edges to retest   : 6680
    Number of intersected edges : 210426
Refined mesh in = 0.39 s
After refinement coarse cell refinement iteration 0 : cells:1978195  faces:6155770  points:2195178
Cells per refinement level:
    0	9080
    1	4620
    2	15528
    3	47296
    4	979093
    5	132474
    6	790104
Skipping balancing since max unbalance 0.0122294 is less than allowable 0.1

Dangling coarse cells refinement iteration 1
--------------------------------------------

Determined cells to refine in = 0.06 s
Selected for refinement : 0 cells (out of 1978195)
Stopping refining since too few cells selected.


Splitting mesh at surface intersections
---------------------------------------

Introducing baffles for 210426 faces that are intersected by the surface.

Edge intersection testing:
    Number of edges             : 6366117
    Number of edges to retest   : 1178851
    Number of intersected edges : 418445
Created baffles in = 0.4 s


After introducing baffles : cells:1978195  faces:6366117  points:2195298
Cells per refinement level:
    0	9080
    1	4620
    2	15528
    3	47296
    4	979093
    5	132474
    6	790104

Introducing baffles to block off problem cells
----------------------------------------------

markFacesOnProblemCells : marked 136016 additional internal faces to be converted into baffles.
Analyzed problem cells in = 0.33 s


Introducing baffles to delete problem cells.

Edge intersection testing:
    Number of edges             : 6502133
    Number of edges to retest   : 545307
    Number of intersected edges : 418569
Created baffles in = 0.36 s


After introducing baffles : cells:1978195  faces:6502133  points:2197880
Cells per refinement level:
    0	9080
    1	4620
    2	15528
    3	47296
    4	979093
    5	132474
    6	790104

Remove unreachable sections of mesh
-----------------------------------

Keeping all cells in region 0 containing point (3.0001 3.0001 0.43)
Selected for keeping : 1760119 cells.
Edge intersection testing:
    Number of edges             : 5550727
    Number of edges to retest   : 0
    Number of intersected edges : 235161
Split mesh in = 1.7 s


After subsetting : cells:1760119  faces:5550727  points:1991602
Cells per refinement level:
    0	9080
    1	4620
    2	15528
    3	47296
    4	979093
    5	120183
    6	584319

Handling cells with snap problems
---------------------------------

Introducing baffles for 235161 faces that are intersected by the surface.

Edge intersection testing:
    Number of edges             : 5550727
    Number of edges to retest   : 704388
    Number of intersected edges : 235161
Created baffles in = 0.38 s


After introducing baffles : cells:1760119  faces:5550727  points:1991602
Cells per refinement level:
    0	9080
    1	4620
    2	15528
    3	47296
    4	979093
    5	120183
    6	584319

Introducing baffles to block off problem cells
----------------------------------------------

markFacesOnProblemCells : marked 196 additional internal faces to be converted into baffles.
Analyzed problem cells in = 0.3 s


Introducing baffles to delete problem cells.

Edge intersection testing:
    Number of edges             : 5550923
    Number of edges to retest   : 947
    Number of intersected edges : 235161
Created baffles in = 0.26 s


After introducing baffles : cells:1760119  faces:5550923  points:1991602
Cells per refinement level:
    0	9080
    1	4620
    2	15528
    3	47296
    4	979093
    5	120183
    6	584319

Remove unreachable sections of mesh
-----------------------------------

Keeping all cells in region 0 containing point (3.0001 3.0001 0.43)
Selected for keeping : 1760028 cells.
Edge intersection testing:
    Number of edges             : 5550377
    Number of edges to retest   : 0
    Number of intersected edges : 234999
Split mesh in = 1.57 s


After subsetting : cells:1760028  faces:5550377  points:1991504
Cells per refinement level:
    0	9080
    1	4620
    2	15528
    3	47296
    4	979093
    5	120183
    6	584228

Merge free-standing baffles
---------------------------

freeStandingBaffles : detected 1397 free-standing baffles out of 36435

freeStandingBaffles : detected 134 planar (within 30 degrees) free-standing baffles out of 1397

Detected free-standing baffles : 134
Edge intersection testing:
    Number of edges             : 5550243
    Number of edges to retest   : 134
    Number of intersected edges : 234865

Introducing baffles to block off problem cells
----------------------------------------------

markFacesOnProblemCells : marked 68 additional internal faces to be converted into baffles.
Analyzed problem cells in = 0.68 s


Introducing baffles to delete problem cells.

Edge intersection testing:
    Number of edges             : 5550311
    Number of edges to retest   : 343
    Number of intersected edges : 234865
Created baffles in = 0.25 s


After introducing baffles : cells:1760028  faces:5550311  points:1991504
Cells per refinement level:
    0	9080
    1	4620
    2	15528
    3	47296
    4	979093
    5	120183
    6	584228
Merged free-standing baffles in = 0.06 s


dupNonManifoldPoints : Found : 36938 non-manifold points (out of 2102845)
Edge intersection testing:
    Number of edges             : 5550311
    Number of edges to retest   : 0
    Number of intersected edges : 234865
Detected unsplittable baffles : 127
Edge intersection testing:
    Number of edges             : 5550184
    Number of edges to retest   : 127
    Number of intersected edges : 234738
Keeping all cells in region 0 containing point (3.0001 3.0001 0.43)
Selected for keeping : 1759998 cells.
Edge intersection testing:
    Number of edges             : 5550004
    Number of edges to retest   : 0
    Number of intersected edges : 234688
Merged free-standing baffles in = 2.12 s.

Merge refined boundary faces
----------------------------

Merging 795 sets of faces.

Edge intersection testing:
    Number of edges             : 5548801
    Number of edges to retest   : 7319
    Number of intersected edges : 233494

Undo iteration 0
----------------
Checking faces in error :
    non-orthogonality > 65  degrees                        : 0
    faces with face pyramid volume < 1e-13                 : 0
    faces with face-decomposition tet quality < 1e-15      : 0
    faces with concavity > 80  degrees                     : 0
    faces with skewness > 4   (internal) or 20  (boundary) : 0
    faces with interpolation weights (0..1)  < 0.02        : 0
    faces with volume ratio of neighbour cells < 0.01      : 0
    faces with face twist < 0.02                           : 0
    faces on cells with determinant < 0.001                : 0

Merging all points on surface that
- are used by only two boundary faces and
- make an angle with a cosine of more than 0.707107.

Removing 1016 straight edge points ...

Edge intersection testing:
    Number of edges             : 5548801
    Number of edges to retest   : 8518
    Number of intersected edges : 233494

Undo iteration 0
----------------
Checking faces in error :
    non-orthogonality > 65  degrees                        : 0
    faces with face pyramid volume < 1e-13                 : 0
    faces with face-decomposition tet quality < 1e-15      : 0
    faces with concavity > 80  degrees                     : 0
    faces with skewness > 4   (internal) or 20  (boundary) : 0
    faces with interpolation weights (0..1)  < 0.02        : 0
    faces with volume ratio of neighbour cells < 0.01      : 0
    faces with face twist < 0.02                           : 0
    faces on cells with determinant < 0.001                : 0

Doing final balancing
---------------------

Found 0 zoned faces to keep together.
Found 0 separated coupled faces to keep together.
Refined mesh : cells:1759998  faces:5548801  points:2026599
Cells per refinement level:
    0	9080
    1	4620
    2	15528
    3	47296
    4	979093
    5	120183
    6	584198
Writing mesh to time constant
Wrote mesh in = 9.1 s.
Mesh refined in = 68.09 s.

Morphing phase
--------------


Snapping to features in 10 iterations ...
Constructing mesh displacer ...
Using mesh parameters 
{
    maxNonOrtho     65;
    maxBoundarySkewness 20;
    maxInternalSkewness 4;
    maxConcave      80;
    minVol          1e-13;
    minTetQuality   1e-15;
    minArea         -1;
    minTwist        0.02;
    minDeterminant  0.001;
    minFaceWeight   0.02;
    minVolRatio     0.01;
    minTriangleTwist -1;
    nSmoothScale    4;
    errorReduction  0.75;
}


Checking initial mesh ...
Checking faces in error :
    non-orthogonality > 65  degrees                        : 0
    faces with face pyramid volume < 1e-13                 : 0
    faces with face-decomposition tet quality < 1e-15      : 0
    faces with concavity > 80  degrees                     : 0
    faces with skewness > 4   (internal) or 20  (boundary) : 0
    faces with interpolation weights (0..1)  < 0.02        : 0
    faces with volume ratio of neighbour cells < 0.01      : 0
    faces with face twist < 0.02                           : 0
    faces on cells with determinant < 0.001                : 0
Detected 0 illegal faces (concave, zero area or negative cell pyramid volume)
Checked initial mesh in = 0.3 s


Smoothing patch points ...
Smoothing iteration 0
Found 45054 non-manifold point(s).

Scaling iteration 0
Moving mesh using displacement scaling : min:1  max:1
Checking faces in error :
    non-orthogonality > 65  degrees                        : 0
    faces with face pyramid volume < 1e-13                 : 0
    faces with face-decomposition tet quality < 1e-15      : 0
    faces with concavity > 80  degrees                     : 0
    faces with skewness > 4   (internal) or 20  (boundary) : 0
    faces with interpolation weights (0..1)  < 0.02        : 0
    faces with volume ratio of neighbour cells < 0.01      : 0
    faces with face twist < 0.02                           : 2
    faces on cells with determinant < 0.001                : 0

Scaling iteration 1
Moving mesh using displacement scaling : min:0.75  max:1
Checking faces in error :
    non-orthogonality > 65  degrees                        : 0
    faces with face pyramid volume < 1e-13                 : 0
    faces with face-decomposition tet quality < 1e-15      : 0
    faces with concavity > 80  degrees                     : 0
    faces with skewness > 4   (internal) or 20  (boundary) : 0
    faces with interpolation weights (0..1)  < 0.02        : 0
    faces with volume ratio of neighbour cells < 0.01      : 0
    faces with face twist < 0.02                           : 0
    faces on cells with determinant < 0.001                : 0
Successfully moved mesh

Smoothing iteration 1
Found 0 non-manifold point(s).

Scaling iteration 0
Moving mesh using displacement scaling : min:1  max:1
Checking faces in error :
    non-orthogonality > 65  degrees                        : 0
    faces with face pyramid volume < 1e-13                 : 0
    faces with face-decomposition tet quality < 1e-15      : 1
    faces with concavity > 80  degrees                     : 0
    faces with skewness > 4   (internal) or 20  (boundary) : 0
    faces with interpolation weights (0..1)  < 0.02        : 0
    faces with volume ratio of neighbour cells < 0.01      : 0
    faces with face twist < 0.02                           : 0
    faces on cells with determinant < 0.001                : 0

Scaling iteration 1
Moving mesh using displacement scaling : min:0.75  max:1
Checking faces in error :
    non-orthogonality > 65  degrees                        : 0
    faces with face pyramid volume < 1e-13                 : 0
    faces with face-decomposition tet quality < 1e-15      : 1
    faces with concavity > 80  degrees                     : 0
    faces with skewness > 4   (internal) or 20  (boundary) : 0
    faces with interpolation weights (0..1)  < 0.02        : 0
    faces with volume ratio of neighbour cells < 0.01      : 0
    faces with face twist < 0.02                           : 0
    faces on cells with determinant < 0.001                : 0

Scaling iteration 2
Moving mesh using displacement scaling : min:0.5625  max:1
Checking faces in error :
    non-orthogonality > 65  degrees                        : 0
    faces with face pyramid volume < 1e-13                 : 0
    faces with face-decomposition tet quality < 1e-15      : 0
    faces with concavity > 80  degrees                     : 0
    faces with skewness > 4   (internal) or 20  (boundary) : 0
    faces with interpolation weights (0..1)  < 0.02        : 0
    faces with volume ratio of neighbour cells < 0.01      : 0
    faces with face twist < 0.02                           : 0
    faces on cells with determinant < 0.001                : 0
Successfully moved mesh

Smoothing iteration 2
Found 0 non-manifold point(s).

Scaling iteration 0
Moving mesh using displacement scaling : min:1  max:1
Checking faces in error :
    non-orthogonality > 65  degrees                        : 0
    faces with face pyramid volume < 1e-13                 : 0
    faces with face-decomposition tet quality < 1e-15      : 5
    faces with concavity > 80  degrees                     : 0
    faces with skewness > 4   (internal) or 20  (boundary) : 0
    faces with interpolation weights (0..1)  < 0.02        : 0
    faces with volume ratio of neighbour cells < 0.01      : 0
    faces with face twist < 0.02                           : 0
    faces on cells with determinant < 0.001                : 0

Scaling iteration 1
Moving mesh using displacement scaling : min:0.75  max:1
Checking faces in error :
    non-orthogonality > 65  degrees                        : 0
    faces with face pyramid volume < 1e-13                 : 0
    faces with face-decomposition tet quality < 1e-15      : 3
    faces with concavity > 80  degrees                     : 0
    faces with skewness > 4   (internal) or 20  (boundary) : 0
    faces with interpolation weights (0..1)  < 0.02        : 0
    faces with volume ratio of neighbour cells < 0.01      : 0
    faces with face twist < 0.02                           : 0
    faces on cells with determinant < 0.001                : 0

Scaling iteration 2
Moving mesh using displacement scaling : min:0.5625  max:1
Checking faces in error :
    non-orthogonality > 65  degrees                        : 0
    faces with face pyramid volume < 1e-13                 : 0
    faces with face-decomposition tet quality < 1e-15      : 3
    faces with concavity > 80  degrees                     : 0
    faces with skewness > 4   (internal) or 20  (boundary) : 0
    faces with interpolation weights (0..1)  < 0.02        : 0
    faces with volume ratio of neighbour cells < 0.01      : 0
    faces with face twist < 0.02                           : 0
    faces on cells with determinant < 0.001                : 0

Scaling iteration 3
Moving mesh using displacement scaling : min:0.421875  max:1
Checking faces in error :
    non-orthogonality > 65  degrees                        : 0
    faces with face pyramid volume < 1e-13                 : 0
    faces with face-decomposition tet quality < 1e-15      : 1
    faces with concavity > 80  degrees                     : 0
    faces with skewness > 4   (internal) or 20  (boundary) : 0
    faces with interpolation weights (0..1)  < 0.02        : 0
    faces with volume ratio of neighbour cells < 0.01      : 0
    faces with face twist < 0.02                           : 0
    faces on cells with determinant < 0.001                : 0

Scaling iteration 4
Moving mesh using displacement scaling : min:0.316406  max:1
Checking faces in error :
    non-orthogonality > 65  degrees                        : 0
    faces with face pyramid volume < 1e-13                 : 0
    faces with face-decomposition tet quality < 1e-15      : 1
    faces with concavity > 80  degrees                     : 0
    faces with skewness > 4   (internal) or 20  (boundary) : 0
    faces with interpolation weights (0..1)  < 0.02        : 0
    faces with volume ratio of neighbour cells < 0.01      : 0
    faces with face twist < 0.02                           : 0
    faces on cells with determinant < 0.001                : 0

Scaling iteration 5
Displacement scaling for error reduction set to 0.
Moving mesh using displacement scaling : min:0.237305  max:1
Checking faces in error :
    non-orthogonality > 65  degrees                        : 0
    faces with face pyramid volume < 1e-13                 : 0
    faces with face-decomposition tet quality < 1e-15      : 1
    faces with concavity > 80  degrees                     : 0
    faces with skewness > 4   (internal) or 20  (boundary) : 0
    faces with interpolation weights (0..1)  < 0.02        : 0
    faces with volume ratio of neighbour cells < 0.01      : 0
    faces with face twist < 0.02                           : 0
    faces on cells with determinant < 0.001                : 0

Scaling iteration 6
Moving mesh using displacement scaling : min:0  max:1
Checking faces in error :
    non-orthogonality > 65  degrees                        : 0
    faces with face pyramid volume < 1e-13                 : 0
    faces with face-decomposition tet quality < 1e-15      : 0
    faces with concavity > 80  degrees                     : 0
    faces with skewness > 4   (internal) or 20  (boundary) : 0
    faces with interpolation weights (0..1)  < 0.02        : 0
    faces with volume ratio of neighbour cells < 0.01      : 0
    faces with face twist < 0.02                           : 0
    faces on cells with determinant < 0.001                : 0
Successfully moved mesh

Patch points smoothed in = 1.76 s



Morph iteration 0
-----------------
Calculating patchDisplacement as distance to nearest surface point ...
Wanted displacement : average:0.00168848 min:4.9335e-10 max:0.0113036
Calculated surface displacement in = 0.05 s


Detecting near surfaces ...
Overriding nearest with intersection of close gaps at 234 out of 247298 points.
Overriding displacement on features :
   implicit features    : false
   explicit features    : true
   multi-patch features : false

Detected 3911 baffle edges out of 486019 edges.
Initially selected 53279 points out of 247298 for reverse attraction.
Selected 124585 points out of 247298 for reverse attraction.
Stringing feature edges : changed 4308 points
Stringing feature edges : changed 300 points
Stringing feature edges : changed 93 points
Stringing feature edges : changed 65 points
Stringing feature edges : changed 37 points
Stringing feature edges : changed 28 points
Stringing feature edges : changed 12 points
Stringing feature edges : changed 9 points
Stringing feature edges : changed 10 points
Stringing feature edges : changed 2 points
Stringing feature edges : changed 1 points
Stringing feature edges : changed 2 points
Stringing feature edges : changed 5 points
Stringing feature edges : changed 1 points
Stringing feature edges : changed 0 points
Attraction:
     linear   : max:(0.000314872 -0.00567183 0.00977254) avg:(4.37091e-06 4.15755e-06 5.50678e-06)
     feature  : max:(0.0364875 0.000900886 -9.98e-06) avg:(-2.81398e-07 2.19549e-07 -1.30155e-05)
Feature analysis : total master points:240310 attraction to :
    feature point   : 1571
    feature edge    : 27481
    nearest surface : 0
    rest            : 211258

--> FOAM Warning : Displacement (3.82847e-05 -0.00012844 -2.83956e-05) at mesh point 34317 coord (0.99124 -0.148638 0.241879) points through the surrounding patch faces
Smoothing displacement ...
Iteration 0
Iteration 10
Iteration 20
Displacement smoothed in = 0.86 s


Moving mesh ...

Iteration 0
Moving mesh using displacement scaling : min:1  max:1
Checking faces in error :
    non-orthogonality > 65  degrees                        : 0
    faces with face pyramid volume < 1e-13                 : 0
    faces with face-decomposition tet quality < 1e-15      : 1
    faces with concavity > 80  degrees                     : 0
    faces with skewness > 4   (internal) or 20  (boundary) : 0
    faces with interpolation weights (0..1)  < 0.02        : 0
    faces with volume ratio of neighbour cells < 0.01      : 0
    faces with face twist < 0.02                           : 0
    faces on cells with determinant < 0.001                : 0

Iteration 1
Moving mesh using displacement scaling : min:0.75  max:1
Checking faces in error :
    non-orthogonality > 65  degrees                        : 0
    faces with face pyramid volume < 1e-13                 : 0
    faces with face-decomposition tet quality < 1e-15      : 0
    faces with concavity > 80  degrees                     : 0
    faces with skewness > 4   (internal) or 20  (boundary) : 0
    faces with interpolation weights (0..1)  < 0.02        : 0
    faces with volume ratio of neighbour cells < 0.01      : 0
    faces with face twist < 0.02                           : 0
    faces on cells with determinant < 0.001                : 0
Successfully moved mesh
Moved mesh in = 0.31 s



Morph iteration 1
-----------------
Calculating patchDisplacement as distance to nearest surface point ...
Wanted displacement : average:0.00156914 min:2.26656e-10 max:0.0109059
Calculated surface displacement in = 0.05 s


Detecting near surfaces ...
Overriding nearest with intersection of close gaps at 261 out of 247298 points.
Overriding displacement on features :
   implicit features    : false
   explicit features    : true
   multi-patch features : false

Detected 3903 baffle edges out of 486019 edges.
Initially selected 53402 points out of 247298 for reverse attraction.
Selected 124699 points out of 247298 for reverse attraction.
Stringing feature edges : changed 4271 points
Stringing feature edges : changed 315 points
Stringing feature edges : changed 100 points
Stringing feature edges : changed 55 points
Stringing feature edges : changed 30 points
Stringing feature edges : changed 30 points
Stringing feature edges : changed 13 points
Stringing feature edges : changed 8 points
Stringing feature edges : changed 1 points
Stringing feature edges : changed 0 points
Attraction:
     linear   : max:(0.000303794 -0.00547228 0.00942871) avg:(3.38884e-06 4.17166e-06 5.70989e-06)
     feature  : max:(0.0360545 -0.00317525 -9.04404e-06) avg:(8.37536e-07 -8.4629e-07 -1.25721e-05)
Feature analysis : total master points:240310 attraction to :
    feature point   : 1575
    feature edge    : 27483
    nearest surface : 0
    rest            : 211252

--> FOAM Warning : Displacement (2.75391e-05 -0.000261123 -6.10359e-05) at mesh point 34317 coord (0.991278 -0.148766 0.24185) points through the surrounding patch faces
Smoothing displacement ...
Iteration 0
Iteration 10
Iteration 20
Displacement smoothed in = 0.86 s


Moving mesh ...

Iteration 0
Moving mesh using displacement scaling : min:1  max:1
Checking faces in error :
    non-orthogonality > 65  degrees                        : 0
    faces with face pyramid volume < 1e-13                 : 0
    faces with face-decomposition tet quality < 1e-15      : 4
    faces with concavity > 80  degrees                     : 0
    faces with skewness > 4   (internal) or 20  (boundary) : 0
    faces with interpolation weights (0..1)  < 0.02        : 0
    faces with volume ratio of neighbour cells < 0.01      : 0
    faces with face twist < 0.02                           : 0
    faces on cells with determinant < 0.001                : 0

Iteration 1
Moving mesh using displacement scaling : min:0.75  max:1
Checking faces in error :
    non-orthogonality > 65  degrees                        : 0
    faces with face pyramid volume < 1e-13                 : 0
    faces with face-decomposition tet quality < 1e-15      : 3
    faces with concavity > 80  degrees                     : 0
    faces with skewness > 4   (internal) or 20  (boundary) : 0
    faces with interpolation weights (0..1)  < 0.02        : 0
    faces with volume ratio of neighbour cells < 0.01      : 0
    faces with face twist < 0.02                           : 0
    faces on cells with determinant < 0.001                : 0

Iteration 2
Moving mesh using displacement scaling : min:0.5625  max:1
Checking faces in error :
    non-orthogonality > 65  degrees                        : 0
    faces with face pyramid volume < 1e-13                 : 0
    faces with face-decomposition tet quality < 1e-15      : 2
    faces with concavity > 80  degrees                     : 0
    faces with skewness > 4   (internal) or 20  (boundary) : 0
    faces with interpolation weights (0..1)  < 0.02        : 0
    faces with volume ratio of neighbour cells < 0.01      : 0
    faces with face twist < 0.02                           : 0
    faces on cells with determinant < 0.001                : 0

Iteration 3
Moving mesh using displacement scaling : min:0.421875  max:1
Checking faces in error :
    non-orthogonality > 65  degrees                        : 0
    faces with face pyramid volume < 1e-13                 : 0
    faces with face-decomposition tet quality < 1e-15      : 0
    faces with concavity > 80  degrees                     : 0
    faces with skewness > 4   (internal) or 20  (boundary) : 0
    faces with interpolation weights (0..1)  < 0.02        : 0
    faces with volume ratio of neighbour cells < 0.01      : 0
    faces with face twist < 0.02                           : 0
    faces on cells with determinant < 0.001                : 0
Successfully moved mesh
Moved mesh in = 0.53 s



Morph iteration 2
-----------------
Calculating patchDisplacement as distance to nearest surface point ...
Wanted displacement : average:0.00134737 min:3.55212e-10 max:0.010058
Calculated surface displacement in = 0.05 s


Detecting near surfaces ...
Overriding nearest with intersection of close gaps at 349 out of 247298 points.
Overriding displacement on features :
   implicit features    : false
   explicit features    : true
   multi-patch features : false

Detected 3827 baffle edges out of 486019 edges.
Initially selected 53410 points out of 247298 for reverse attraction.
Selected 124750 points out of 247298 for reverse attraction.
Stringing feature edges : changed 4196 points
Stringing feature edges : changed 311 points
Stringing feature edges : changed 98 points
Stringing feature edges : changed 56 points
Stringing feature edges : changed 37 points
Stringing feature edges : changed 22 points
Stringing feature edges : changed 16 points
Stringing feature edges : changed 13 points
Stringing feature edges : changed 4 points
Stringing feature edges : changed 2 points
Stringing feature edges : changed 2 points
Stringing feature edges : changed 5 points
Stringing feature edges : changed 0 points
Attraction:
     linear   : max:(-4.35365e-05 -0.00514932 0.00863984) avg:(1.48881e-06 4.44203e-06 5.31484e-06)
     feature  : max:(0.0239583 -0.0252637 -8.00853e-06) avg:(6.07039e-07 -3.66019e-07 -1.37363e-05)
Feature analysis : total master points:240310 attraction to :
    feature point   : 1602
    feature edge    : 27529
    nearest surface : 0
    rest            : 211179

--> FOAM Warning : Displacement (9.84014e-05 -0.00043143 -0.000148592) at mesh point 34317 coord (0.991306 -0.149028 0.241789) points through the surrounding patch faces
Smoothing displacement ...
Iteration 0
Iteration 10
Iteration 20
Displacement smoothed in = 0.86 s


Moving mesh ...

Iteration 0
Moving mesh using displacement scaling : min:1  max:1
Checking faces in error :
    non-orthogonality > 65  degrees                        : 0
    faces with face pyramid volume < 1e-13                 : 0
    faces with face-decomposition tet quality < 1e-15      : 6
    faces with concavity > 80  degrees                     : 0
    faces with skewness > 4   (internal) or 20  (boundary) : 0
    faces with interpolation weights (0..1)  < 0.02        : 0
    faces with volume ratio of neighbour cells < 0.01      : 0
    faces with face twist < 0.02                           : 0
    faces on cells with determinant < 0.001                : 0

Iteration 1
Moving mesh using displacement scaling : min:0.75  max:1
Checking faces in error :
    non-orthogonality > 65  degrees                        : 0
    faces with face pyramid volume < 1e-13                 : 0
    faces with face-decomposition tet quality < 1e-15      : 6
    faces with concavity > 80  degrees                     : 0
    faces with skewness > 4   (internal) or 20  (boundary) : 0
    faces with interpolation weights (0..1)  < 0.02        : 0
    faces with volume ratio of neighbour cells < 0.01      : 0
    faces with face twist < 0.02                           : 0
    faces on cells with determinant < 0.001                : 0

Iteration 2
Moving mesh using displacement scaling : min:0.5625  max:1
Checking faces in error :
    non-orthogonality > 65  degrees                        : 0
    faces with face pyramid volume < 1e-13                 : 0
    faces with face-decomposition tet quality < 1e-15      : 4
    faces with concavity > 80  degrees                     : 0
    faces with skewness > 4   (internal) or 20  (boundary) : 0
    faces with interpolation weights (0..1)  < 0.02        : 0
    faces with volume ratio of neighbour cells < 0.01      : 0
    faces with face twist < 0.02                           : 1
    faces on cells with determinant < 0.001                : 0

Iteration 3
Moving mesh using displacement scaling : min:0.421875  max:1
Checking faces in error :
    non-orthogonality > 65  degrees                        : 0
    faces with face pyramid volume < 1e-13                 : 0
    faces with face-decomposition tet quality < 1e-15      : 3
    faces with concavity > 80  degrees                     : 0
    faces with skewness > 4   (internal) or 20  (boundary) : 0
    faces with interpolation weights (0..1)  < 0.02        : 0
    faces with volume ratio of neighbour cells < 0.01      : 0
    faces with face twist < 0.02                           : 0
    faces on cells with determinant < 0.001                : 0

Iteration 4
Moving mesh using displacement scaling : min:0.316406  max:1
Checking faces in error :
    non-orthogonality > 65  degrees                        : 0
    faces with face pyramid volume < 1e-13                 : 0
    faces with face-decomposition tet quality < 1e-15      : 2
    faces with concavity > 80  degrees                     : 0
    faces with skewness > 4   (internal) or 20  (boundary) : 0
    faces with interpolation weights (0..1)  < 0.02        : 0
    faces with volume ratio of neighbour cells < 0.01      : 0
    faces with face twist < 0.02                           : 0
    faces on cells with determinant < 0.001                : 0

Iteration 5
Displacement scaling for error reduction set to 0.
Moving mesh using displacement scaling : min:0.237305  max:1
Checking faces in error :
    non-orthogonality > 65  degrees                        : 0
    faces with face pyramid volume < 1e-13                 : 0
    faces with face-decomposition tet quality < 1e-15      : 2
    faces with concavity > 80  degrees                     : 0
    faces with skewness > 4   (internal) or 20  (boundary) : 0
    faces with interpolation weights (0..1)  < 0.02        : 0
    faces with volume ratio of neighbour cells < 0.01      : 0
    faces with face twist < 0.02                           : 0
    faces on cells with determinant < 0.001                : 0

Iteration 6
Moving mesh using displacement scaling : min:0  max:1
Checking faces in error :
    non-orthogonality > 65  degrees                        : 0
    faces with face pyramid volume < 1e-13                 : 0
    faces with face-decomposition tet quality < 1e-15      : 0
    faces with concavity > 80  degrees                     : 0
    faces with skewness > 4   (internal) or 20  (boundary) : 0
    faces with interpolation weights (0..1)  < 0.02        : 0
    faces with volume ratio of neighbour cells < 0.01      : 0
    faces with face twist < 0.02                           : 0
    faces on cells with determinant < 0.001                : 0
Successfully moved mesh
Moved mesh in = 0.82 s



Morph iteration 3
-----------------
Calculating patchDisplacement as distance to nearest surface point ...
Wanted displacement : average:0.00106724 min:2.48648e-10 max:0.00971816
Calculated surface displacement in = 0.04 s


Detecting near surfaces ...
Overriding nearest with intersection of close gaps at 488 out of 247298 points.
Overriding displacement on features :
   implicit features    : false
   explicit features    : true
   multi-patch features : false

Detected 3766 baffle edges out of 486019 edges.
Initially selected 53625 points out of 247298 for reverse attraction.
Selected 124859 points out of 247298 for reverse attraction.
Stringing feature edges : changed 4136 points
Stringing feature edges : changed 290 points
Stringing feature edges : changed 77 points
Stringing feature edges : changed 50 points
Stringing feature edges : changed 31 points
Stringing feature edges : changed 18 points
Stringing feature edges : changed 13 points
Stringing feature edges : changed 7 points
Stringing feature edges : changed 12 points
Stringing feature edges : changed 2 points
Stringing feature edges : changed 3 points
Stringing feature edges : changed 3 points
Stringing feature edges : changed 2 points
Stringing feature edges : changed 2 points
Stringing feature edges : changed 1 points
Stringing feature edges : changed 1 points
Stringing feature edges : changed 0 points
Attraction:
     linear   : max:(0.00505885 -0.00772483 -0.00302947) avg:(-7.76177e-08 4.48456e-06 5.05846e-06)
     feature  : max:(0.0306875 -0.00253878 -9.10184e-06) avg:(-2.30559e-07 2.24452e-07 -1.11116e-05)
Feature analysis : total master points:240310 attraction to :
    feature point   : 1633
    feature edge    : 27648
    nearest surface : 0
    rest            : 211029

--> FOAM Warning : Displacement (5.35234e-05 -0.000514342 -0.000201086) at mesh point 34317 coord (0.991404 -0.149459 0.241641) points through the surrounding patch faces
Smoothing displacement ...
Iteration 0
Iteration 10
Iteration 20
Displacement smoothed in = 0.85 s


Moving mesh ...

Iteration 0
Moving mesh using displacement scaling : min:1  max:1
Checking faces in error :
    non-orthogonality > 65  degrees                        : 0
    faces with face pyramid volume < 1e-13                 : 0
    faces with face-decomposition tet quality < 1e-15      : 20
    faces with concavity > 80  degrees                     : 0
    faces with skewness > 4   (internal) or 20  (boundary) : 0
    faces with interpolation weights (0..1)  < 0.02        : 0
    faces with volume ratio of neighbour cells < 0.01      : 0
    faces with face twist < 0.02                           : 4
    faces on cells with determinant < 0.001                : 0

Iteration 1
Moving mesh using displacement scaling : min:0.75  max:1
Checking faces in error :
    non-orthogonality > 65  degrees                        : 0
    faces with face pyramid volume < 1e-13                 : 0
    faces with face-decomposition tet quality < 1e-15      : 13
    faces with concavity > 80  degrees                     : 0
    faces with skewness > 4   (internal) or 20  (boundary) : 0
    faces with interpolation weights (0..1)  < 0.02        : 0
    faces with volume ratio of neighbour cells < 0.01      : 0
    faces with face twist < 0.02                           : 1
    faces on cells with determinant < 0.001                : 0

Iteration 2
Moving mesh using displacement scaling : min:0.5625  max:1
Checking faces in error :
    non-orthogonality > 65  degrees                        : 0
    faces with face pyramid volume < 1e-13                 : 0
    faces with face-decomposition tet quality < 1e-15      : 9
    faces with concavity > 80  degrees                     : 0
    faces with skewness > 4   (internal) or 20  (boundary) : 0
    faces with interpolation weights (0..1)  < 0.02        : 0
    faces with volume ratio of neighbour cells < 0.01      : 0
    faces with face twist < 0.02                           : 2
    faces on cells with determinant < 0.001                : 0

Iteration 3
Moving mesh using displacement scaling : min:0.421875  max:1
Checking faces in error :
    non-orthogonality > 65  degrees                        : 0
    faces with face pyramid volume < 1e-13                 : 0
    faces with face-decomposition tet quality < 1e-15      : 9
    faces with concavity > 80  degrees                     : 0
[...]
    non-orthogonality > 65  degrees                        : 0
    faces with face pyramid volume < 1e-13                 : 0
    faces with face-decomposition tet quality < 1e-15      : 0
    faces with concavity > 80  degrees                     : 0
    faces with skewness > 4   (internal) or 20  (boundary) : 0
    faces with interpolation weights (0..1)  < 0.02        : 0
    faces with volume ratio of neighbour cells < 0.01      : 0
    faces with face twist < 0.02                           : 0
    faces on cells with determinant < 0.001                : 0
displacementMedialAxis : Successfully moved mesh
displacementMedialAxis : Finished moving mesh ...
truncateDisplacement : Unextruded 0 faces due to non-consecutive vertices being extruded.
truncateDisplacement : Unextruded 0 faces due to stringed edges with inconsistent extrusion.

Setting up information for layer truncation ...

Checking mesh with layer ...
Checking faces in error :
    non-orthogonality > 65  degrees                        : 6
    faces with face pyramid volume < 1e-13                 : 0
    faces with face-decomposition tet quality < 1e-15      : 2
    faces with concavity > 80  degrees                     : 0
    faces with skewness > 4   (internal) or 20  (boundary) : 0
    faces with interpolation weights (0..1)  < 0.02        : 0
    faces with volume ratio of neighbour cells < 0.01      : 0
    faces with face twist < 0.02                           : 0
    faces on cells with determinant < 0.001                : 0
Detected 8 illegal faces (concave, zero area or negative cell pyramid volume)
Extruding 134380 out of 182819 faces (73.5044%). Removed extrusion at 8 faces.
Added 134393 out of 182819 cells (73.5115%).


Layer addition iteration 16
--------------------------

Determining displacement for added points according to pointNormal ...
Detected 0 points with point normal pointing through faces.
Reset displacement at 0 points to average of surrounding points.

displacementMedialAxis : Smoothing using Medial Axis ...
displacementMedialAxis : Reducing layer thickness at 517 nodes where thickness to medial axis distance is large 
displacementMedialAxis : Removing isolated regions ...
displacementMedialAxis : Number of isolated points extrusion stopped : 7
displacementMedialAxis : Smoothing field ...
    Iteration 0   residual 4.5975e-05
displacementMedialAxis : Moving mesh ...
displacementMedialAxis : Iteration 0
Moving mesh using displacement scaling : min:1  max:1
Checking faces in error :
    non-orthogonality > 65  degrees                        : 0
    faces with face pyramid volume < 1e-13                 : 0
    faces with face-decomposition tet quality < 1e-15      : 17
    faces with concavity > 80  degrees                     : 0
    faces with skewness > 4   (internal) or 20  (boundary) : 0
    faces with interpolation weights (0..1)  < 0.02        : 0
    faces with volume ratio of neighbour cells < 0.01      : 0
    faces with face twist < 0.02                           : 0
    faces on cells with determinant < 0.001                : 0
displacementMedialAxis : Iteration 1
Moving mesh using displacement scaling : min:0.75  max:1
Checking faces in error :
    non-orthogonality > 65  degrees                        : 0
    faces with face pyramid volume < 1e-13                 : 0
    faces with face-decomposition tet quality < 1e-15      : 5
    faces with concavity > 80  degrees                     : 0
    faces with skewness > 4   (internal) or 20  (boundary) : 0
    faces with interpolation weights (0..1)  < 0.02        : 0
    faces with volume ratio of neighbour cells < 0.01      : 0
    faces with face twist < 0.02                           : 0
    faces on cells with determinant < 0.001                : 0
displacementMedialAxis : Iteration 2
Moving mesh using displacement scaling : min:0.5625  max:1
Checking faces in error :
    non-orthogonality > 65  degrees                        : 0
    faces with face pyramid volume < 1e-13                 : 0
    faces with face-decomposition tet quality < 1e-15      : 3
    faces with concavity > 80  degrees                     : 0
    faces with skewness > 4   (internal) or 20  (boundary) : 0
    faces with interpolation weights (0..1)  < 0.02        : 0
    faces with volume ratio of neighbour cells < 0.01      : 0
    faces with face twist < 0.02                           : 0
    faces on cells with determinant < 0.001                : 0
displacementMedialAxis : Iteration 3
displacementMedialAxis : Displacement scaling for error reduction set to 0.
Moving mesh using displacement scaling : min:0.421875  max:1
Checking faces in error :
    non-orthogonality > 65  degrees                        : 0
    faces with face pyramid volume < 1e-13                 : 0
    faces with face-decomposition tet quality < 1e-15      : 2
    faces with concavity > 80  degrees                     : 0
    faces with skewness > 4   (internal) or 20  (boundary) : 0
    faces with interpolation weights (0..1)  < 0.02        : 0
    faces with volume ratio of neighbour cells < 0.01      : 0
    faces with face twist < 0.02                           : 0
    faces on cells with determinant < 0.001                : 0
displacementMedialAxis : Iteration 4
Moving mesh using displacement scaling : min:0  max:1
Checking faces in error :
    non-orthogonality > 65  degrees                        : 0
    faces with face pyramid volume < 1e-13                 : 0
    faces with face-decomposition tet quality < 1e-15      : 0
    faces with concavity > 80  degrees                     : 0
    faces with skewness > 4   (internal) or 20  (boundary) : 0
    faces with interpolation weights (0..1)  < 0.02        : 0
    faces with volume ratio of neighbour cells < 0.01      : 0
    faces with face twist < 0.02                           : 0
    faces on cells with determinant < 0.001                : 0
displacementMedialAxis : Successfully moved mesh
displacementMedialAxis : Finished moving mesh ...
truncateDisplacement : Unextruded 0 faces due to non-consecutive vertices being extruded.
truncateDisplacement : Unextruded 0 faces due to stringed edges with inconsistent extrusion.

Setting up information for layer truncation ...

Checking mesh with layer ...
Checking faces in error :
    non-orthogonality > 65  degrees                        : 3
    faces with face pyramid volume < 1e-13                 : 0
    faces with face-decomposition tet quality < 1e-15      : 0
    faces with concavity > 80  degrees                     : 0
    faces with skewness > 4   (internal) or 20  (boundary) : 0
    faces with interpolation weights (0..1)  < 0.02        : 0
    faces with volume ratio of neighbour cells < 0.01      : 0
    faces with face twist < 0.02                           : 0
    faces on cells with determinant < 0.001                : 0
Detected 3 illegal faces (concave, zero area or negative cell pyramid volume)
Extruding 134364 out of 182819 faces (73.4956%). Removed extrusion at 3 faces.
Added 134368 out of 182819 cells (73.4978%).


Layer addition iteration 17
--------------------------

Determining displacement for added points according to pointNormal ...
Detected 0 points with point normal pointing through faces.
Reset displacement at 0 points to average of surrounding points.

displacementMedialAxis : Smoothing using Medial Axis ...
displacementMedialAxis : Reducing layer thickness at 517 nodes where thickness to medial axis distance is large 
displacementMedialAxis : Removing isolated regions ...
displacementMedialAxis : Number of isolated points extrusion stopped : 4
displacementMedialAxis : Smoothing field ...
    Iteration 0   residual 4.59746e-05
displacementMedialAxis : Moving mesh ...
displacementMedialAxis : Iteration 0
Moving mesh using displacement scaling : min:1  max:1
Checking faces in error :
    non-orthogonality > 65  degrees                        : 0
    faces with face pyramid volume < 1e-13                 : 0
    faces with face-decomposition tet quality < 1e-15      : 17
    faces with concavity > 80  degrees                     : 0
    faces with skewness > 4   (internal) or 20  (boundary) : 0
    faces with interpolation weights (0..1)  < 0.02        : 0
    faces with volume ratio of neighbour cells < 0.01      : 0
    faces with face twist < 0.02                           : 0
    faces on cells with determinant < 0.001                : 0
displacementMedialAxis : Iteration 1
Moving mesh using displacement scaling : min:0.75  max:1
Checking faces in error :
    non-orthogonality > 65  degrees                        : 0
    faces with face pyramid volume < 1e-13                 : 0
    faces with face-decomposition tet quality < 1e-15      : 5
    faces with concavity > 80  degrees                     : 0
    faces with skewness > 4   (internal) or 20  (boundary) : 0
    faces with interpolation weights (0..1)  < 0.02        : 0
    faces with volume ratio of neighbour cells < 0.01      : 0
    faces with face twist < 0.02                           : 0
    faces on cells with determinant < 0.001                : 0
displacementMedialAxis : Iteration 2
Moving mesh using displacement scaling : min:0.5625  max:1
Checking faces in error :
    non-orthogonality > 65  degrees                        : 0
    faces with face pyramid volume < 1e-13                 : 0
    faces with face-decomposition tet quality < 1e-15      : 3
    faces with concavity > 80  degrees                     : 0
    faces with skewness > 4   (internal) or 20  (boundary) : 0
    faces with interpolation weights (0..1)  < 0.02        : 0
    faces with volume ratio of neighbour cells < 0.01      : 0
    faces with face twist < 0.02                           : 0
    faces on cells with determinant < 0.001                : 0
displacementMedialAxis : Iteration 3
displacementMedialAxis : Displacement scaling for error reduction set to 0.
Moving mesh using displacement scaling : min:0.421875  max:1
Checking faces in error :
    non-orthogonality > 65  degrees                        : 0
    faces with face pyramid volume < 1e-13                 : 0
    faces with face-decomposition tet quality < 1e-15      : 2
    faces with concavity > 80  degrees                     : 0
    faces with skewness > 4   (internal) or 20  (boundary) : 0
    faces with interpolation weights (0..1)  < 0.02        : 0
    faces with volume ratio of neighbour cells < 0.01      : 0
    faces with face twist < 0.02                           : 0
    faces on cells with determinant < 0.001                : 0
displacementMedialAxis : Iteration 4
Moving mesh using displacement scaling : min:0  max:1
Checking faces in error :
    non-orthogonality > 65  degrees                        : 0
    faces with face pyramid volume < 1e-13                 : 0
    faces with face-decomposition tet quality < 1e-15      : 0
    faces with concavity > 80  degrees                     : 0
    faces with skewness > 4   (internal) or 20  (boundary) : 0
    faces with interpolation weights (0..1)  < 0.02        : 0
    faces with volume ratio of neighbour cells < 0.01      : 0
    faces with face twist < 0.02                           : 0
    faces on cells with determinant < 0.001                : 0
displacementMedialAxis : Successfully moved mesh
displacementMedialAxis : Finished moving mesh ...
truncateDisplacement : Unextruded 0 faces due to non-consecutive vertices being extruded.
truncateDisplacement : Unextruded 0 faces due to stringed edges with inconsistent extrusion.

Setting up information for layer truncation ...

Checking mesh with layer ...
Checking faces in error :
    non-orthogonality > 65  degrees                        : 0
    faces with face pyramid volume < 1e-13                 : 0
    faces with face-decomposition tet quality < 1e-15      : 0
    faces with concavity > 80  degrees                     : 0
    faces with skewness > 4   (internal) or 20  (boundary) : 0
    faces with interpolation weights (0..1)  < 0.02        : 0
    faces with volume ratio of neighbour cells < 0.01      : 0
    faces with face twist < 0.02                           : 0
    faces on cells with determinant < 0.001                : 0
Detected 0 illegal faces (concave, zero area or negative cell pyramid volume)
Extruding 134360 out of 182819 faces (73.4935%). Removed extrusion at 0 faces.
Added 134360 out of 182819 cells (73.4935%).
Edge intersection testing:
    Number of edges             : 5881262
    Number of edges to retest   : 0
    Number of intersected edges : 283172

Doing final balancing
---------------------

Writing 134360 added cells to cellSet addedCells
Writing 0 faces inside added layer to faceSet layerFaces

Writing fields with layer information:
    nSurfaceLayers    : actual number of layers
    thickness         : overall layer thickness
    thicknessFraction : overall layer thickness (fraction of desired thickness)


patch                                            faces    layers   overall thickness
                                                                   [m]       [%]
-----                                            -----    ------   ---       ---
lowerWall                                        15830    0.994    0.0146    96.4    
motorBike_frt-fairing:001%1                      21609    0.62     0.00104   44.2    
motorBike_windshield:002%2                       180      0.928    0.00184   78.4    
motorBike_rr-wh-rim:005%5                        566      0.846    0.000996  42.5    
motorBike_rr-wh-rim:010%10                       1379     0.177    0.000269  11.5    
motorBike_fr-wh-rim:011%11                       1770     0.54     0.000585  25      
motorBike_fr-wh-brake-disk:012%12                256      1        0.00103   44.3    
motorBike_frame:016-shadow%13                    434      0.544    0.000505  21.7    
motorBike_rear-susp:014%14                       3570     0.715    0.000962  41.1    
motorBike_rear-susp:014-shadow%15                2186     0.708    0.000985  42.1    
motorBike_frame:016%16                           229      0.537    0.000456  19.5    
motorBike_rr-wh-rim:005-shadow%17                310      0.826    0.001     42.8    
motorBike_rr-wh-chain-hub:022%22                 459      0.477    0.000378  16.5    
motorBike_rearseat%24                            1369     0.882    0.00175   68.4    
motorBike_frt-fairing%25                         2210     0.873    0.00148   62.5    
motorBike_windshield%26                          1493     0.0991   7.95e-05  3.39    
motorBike_headlights%27                          588      0.978    0.00214   91      
motorBike_driversseat%28                         1603     0.802    0.00124   52.7    
motorBike_rear-body%29                           7397     0.888    0.00162   66.6    
motorBike_fuel-tank%30                           3232     0.915    0.0019    77.8    
motorBike_exhaust%31                             8459     0.714    0.00133   53.4    
motorBike_rr-wh-rim%32                           4357     0.878    0.00147   58.5    
motorBike_fr-mud-guard%33                        3147     0.362    0.000389  16.6    
motorBike_fr-wh-rim%34                           2206     0.913    0.00156   66.8    
motorBike_fr-wh-brake-disk%35                    1731     0.76     0.000754  32.2    
motorBike_fr-brake-caliper%36                    570      0.268    0.0002    8.6     
motorBike_fr-wh-tyre%37                          5035     0.736    0.00135   57.6    
motorBike_hbars%38                               2036     0.219    0.000219  9.38    
motorBike_fr-forks%39                            4357     0.717    0.0013    55.5    
motorBike_chain%40                               1792     0.123    8.43e-05  3.6     
motorBike_rr-wh-tyre%41                          4577     0.799    0.00173   59.3    
motorBike_square-dial%42                         20       1        0.00192   81.9    
motorBike_round-dial%43                          45       0.978    0.00102   43.4    
motorBike_dial-holder%44                         343      0.741    0.000717  30.9    
motorBike_rear-susp%45                           7097     0.775    0.00093   39.7    
motorBike_rear-brake-lights%46                   201      0.502    0.000433  18.8    
motorBike_rear-light-bracket%47                  634      0.833    0.00117   49.8    
motorBike_frame%48                               7624     0.793    0.00132   56.3    
motorBike_rear-mud-guard%49                      2548     0.331    0.000382  16.3    
motorBike_rear-susp-spring-damp%50               442      0.525    0.000472  20.3    
motorBike_fairing-inner-plate%51                 1564     0.806    0.00128   51.2    
motorBike_clutch-housing%52                      3810     0.967    0.00176   74.6    
motorBike_radiator%53                            408      0.157    7.98e-05  3.43    
motorBike_water-pipe%54                          327      0        0         0       
motorBike_water-pump%55                          264      0.402    0.000339  14.7    
motorBike_engine%56                              8709     0.9      0.00154   64.4    
motorBike_rear-shock-link%57                     98       0        0         0       
motorBike_rear-brake-fluid-pot-bracket%58        180      0.717    0.000748  32.2    
motorBike_rear-brake-fluid-pot%59                201      0.607    0.000403  17.6    
motorBike_footpeg%60                             345      0.342    0.00017   7.29    
motorBike_rr-wh-chain-hub%61                     462      0.673    0.000601  25.9    
motorBike_rear-brake-caliper%62                  570      0.382    0.000317  13.7    
motorBike_rider-helmet%65                        1796     0.952    0.00231   79      
motorBike_rider-visor%66                         541      1        0.00231   96.8    
motorBike_rider-boots%67                         3760     0.964    0.00199   84.7    
motorBike_rider-gloves%68                        1209     0.459    0.000762  32.5    
motorBike_rider-body%69                          14291    0.935    0.0022    81.2    
motorBike_frame:0%70                             140      0.671    0.00105   44.7    
motorBike_frt-fairing:001-shadow%74              13782    0.592    0.00101   43.2    
motorBike_windshield-shadow%75                   997      0.0933   7.14e-05  3.05    
motorBike_fr-mud-guard-shadow%81                 1989     0.335    0.000381  16.3    
motorBike_fr-wh-brake-disk-shadow%83             930      0.768    0.00074   31.7    
motorBike_rear-mud-guard-shadow%84               1623     0.338    0.000384  16.4    
motorBike_rear-susp-spring-damp-shadow%85        273      0.527    0.000548  23.7    
motorBike_radiator-shadow%86                     257      0.257    0.000134  5.73    
motorBike_rear-shock-link-shadow%87              60       0        0         0       
motorBike_rear-brake-fluid-pot-bracket-shadow%88 81       0.617    0.000575  24.6    
motorBike_rr-wh-chain-hub-shadow%89              261      0.563    0.000469  20      

Layer mesh : cells:1894358  faces:5881262  points:2114829
Cells per refinement level:
    0	9548
    1	4912
    2	16076
    3	48272
    4	991545
    5	126840
    6	697165
Writing mesh to time constant
Wrote mesh in = 51.41 s.
Layers added in = 51.41 s.
Checking final mesh ...
Checking faces in error :
    non-orthogonality > 65  degrees                        : 0
    faces with face pyramid volume < 1e-13                 : 0
    faces with face-decomposition tet quality < 1e-15      : 0
    faces with concavity > 80  degrees                     : 0
    faces with skewness > 4   (internal) or 20  (boundary) : 0
    faces with interpolation weights (0..1)  < 0.02        : 0
    faces with volume ratio of neighbour cells < 0.01      : 0
    faces with face twist < 0.02                           : 0
    faces on cells with determinant < 0.001                : 0
Finished meshing without any errors
Finished meshing in = 148.36 s.
End

Finalising parallel run
