Cleaning /rds/user/hpcbras1/hpc-work/csd3/cclake-ib-gcc9-ompi3-ucx/openfoam/Openfoam_Mbike_1 case
Running surfaceFeatureExtract on /rds/user/hpcbras1/hpc-work/csd3/cclake-ib-gcc9-ompi3-ucx/openfoam/Openfoam_Mbike_1
Running blockMesh on /rds/user/hpcbras1/hpc-work/csd3/cclake-ib-gcc9-ompi3-ucx/openfoam/Openfoam_Mbike_1
Running decomposePar on /rds/user/hpcbras1/hpc-work/csd3/cclake-ib-gcc9-ompi3-ucx/openfoam/Openfoam_Mbike_1
Running snappyHexMesh in parallel on /rds/user/hpcbras1/hpc-work/csd3/cclake-ib-gcc9-ompi3-ucx/openfoam/Openfoam_Mbike_1 using 32 processes
/*---------------------------------------------------------------------------*\
  =========                 |
  \\      /  F ield         | OpenFOAM: The Open Source CFD Toolbox
   \\    /   O peration     | Website:  https://openfoam.org
    \\  /    A nd           | Version:  7
     \\/     M anipulation  |
\*---------------------------------------------------------------------------*/
Build  : 7
Exec   : /home/hpcbras1/spack/opt/spack/linux-scientific7-skylake_avx512/gcc-9.1.0/openfoam-org-7-dahapwszurcwmfsxldhpukzh3tv4odmy/platforms/linux64GccDPInt32-spack/bin/simpleFoam -parallel
Date   : Oct 14 2020
Time   : 12:02:37
Host   : "cpu-p-281"
PID    : 245784
I/O    : uncollated
Case   : /rds/user/hpcbras1/hpc-work/csd3/cclake-ib-gcc9-ompi3-ucx/openfoam/Openfoam_Mbike_1
nProcs : 32
Slaves : 
31
(
"cpu-p-281.245785"
"cpu-p-281.245786"
"cpu-p-281.245787"
"cpu-p-281.245788"
"cpu-p-281.245789"
"cpu-p-281.245790"
"cpu-p-281.245791"
"cpu-p-281.245792"
"cpu-p-281.245793"
"cpu-p-281.245794"
"cpu-p-281.245795"
"cpu-p-281.245796"
"cpu-p-281.245797"
"cpu-p-281.245798"
"cpu-p-281.245799"
"cpu-p-281.245800"
"cpu-p-281.245801"
"cpu-p-281.245802"
"cpu-p-281.245803"
"cpu-p-281.245804"
"cpu-p-281.245805"
"cpu-p-281.245806"
"cpu-p-281.245807"
"cpu-p-281.245808"
"cpu-p-281.245809"
"cpu-p-281.245810"
"cpu-p-281.245811"
"cpu-p-281.245812"
"cpu-p-281.245813"
"cpu-p-281.245814"
"cpu-p-281.245815"
)

Pstream initialized with:
    floatTransfer      : 0
    nProcsSimpleSum    : 0
    commsType          : nonBlocking
    polling iterations : 0
sigFpe : Enabling floating point exception trapping (FOAM_SIGFPE).
fileModificationChecking : Monitoring run-time modified files using timeStampMaster (fileModificationSkew 10)
allowSystemOperations : Allowing user-supplied system call operations

// * * * * * * * * * * * * * * * * * * * * * * * * * * * * * * * * * * * * * //
Create time

Create mesh for time = 0


SIMPLE: No convergence criteria found

Reading field p

Reading field U

Reading/calculating face flux field phi

Selecting incompressible transport model Newtonian
Selecting turbulence model type RAS
Selecting RAS turbulence model kOmegaSST
Selecting patchDistMethod meshWave
RAS
{
    RASModel        kOmegaSST;
    turbulence      on;
    printCoeffs     on;
    alphaK1         0.85;
    alphaK2         1;
    alphaOmega1     0.5;
    alphaOmega2     0.856;
    gamma1          0.555556;
    gamma2          0.44;
    beta1           0.075;
    beta2           0.0828;
    betaStar        0.09;
    a1              0.31;
    b1              1;
    c1              10;
    F3              false;
}

No MRF models present

No finite volume options present

Starting time loop

Reading surface description:
    yNormal

forces forceCoeffs1:
    Not including porosity effects
forceCoeffs forceCoeffs1:
    Not including porosity effects
Time = 1

smoothSolver:  Solving for Ux, Initial residual = 1, Final residual = 0.0983274, No Iterations 13
smoothSolver:  Solving for Uy, Initial residual = 1, Final residual = 0.090499, No Iterations 12
smoothSolver:  Solving for Uz, Initial residual = 1, Final residual = 0.083633, No Iterations 13
GAMG:  Solving for p, Initial residual = 1, Final residual = 0.00430828, No Iterations 7
time step continuity errors : sum local = 0.000304308, global = -3.71014e-06, cumulative = -3.71014e-06
smoothSolver:  Solving for omega, Initial residual = 0.0292426, Final residual = 0.00123432, No Iterations 3
bounding omega, min: -1040.32 max: 194921 average: 501.155
smoothSolver:  Solving for k, Initial residual = 1, Final residual = 0.0993675, No Iterations 3
ExecutionTime = 1.07 s  ClockTime = 2 s

forceCoeffs forceCoeffs1 write:
    Cm    = 12.2485
    Cd    = 26.4699
    Cl    = -1.72477
    Cl(f) = 11.3862
    Cl(r) = -13.1109

Time = 2

smoothSolver:  Solving for Ux, Initial residual = 0.106956, Final residual = 0.01008, No Iterations 11
smoothSolver:  Solving for Uy, Initial residual = 0.519664, Final residual = 0.0448158, No Iterations 11
smoothSolver:  Solving for Uz, Initial residual = 0.394898, Final residual = 0.0325772, No Iterations 11
GAMG:  Solving for p, Initial residual = 0.237176, Final residual = 0.00104833, No Iterations 5
time step continuity errors : sum local = 0.00456065, global = -4.35243e-05, cumulative = -4.72345e-05
smoothSolver:  Solving for omega, Initial residual = 0.999998, Final residual = 0.0509931, No Iterations 4
smoothSolver:  Solving for k, Initial residual = 0.978993, Final residual = 1.16986e-07, No Iterations 1
ExecutionTime = 1.56 s  ClockTime = 2 s

forceCoeffs forceCoeffs1 write:
    Cm    = 4.65669
    Cd    = 10.6844
    Cl    = -0.321984
    Cl(f) = 4.4957
    Cl(r) = -4.81768

Time = 3

smoothSolver:  Solving for Ux, Initial residual = 0.125959, Final residual = 0.00937602, No Iterations 5
smoothSolver:  Solving for Uy, Initial residual = 0.555682, Final residual = 0.0549069, No Iterations 5
smoothSolver:  Solving for Uz, Initial residual = 0.619167, Final residual = 0.0439683, No Iterations 5
GAMG:  Solving for p, Initial residual = 0.147259, Final residual = 0.000841739, No Iterations 5
time step continuity errors : sum local = 0.00287763, global = 7.03701e-05, cumulative = 2.31357e-05
smoothSolver:  Solving for omega, Initial residual = 0.538464, Final residual = 1.0678e-12, No Iterations 1
bounding omega, min: -3.31577e+08 max: 4.44007e+15 average: 6.89715e+09
smoothSolver:  Solving for k, Initial residual = 0.116868, Final residual = 1.41401e-07, No Iterations 1
ExecutionTime = 2 s  ClockTime = 2 s

forceCoeffs forceCoeffs1 write:
    Cm    = 2.82285
    Cd    = 6.33444
    Cl    = -0.906152
    Cl(f) = 2.36977
    Cl(r) = -3.27592

Time = 4

smoothSolver:  Solving for Ux, Initial residual = 0.0514566, Final residual = 0.00396598, No Iterations 6
smoothSolver:  Solving for Uy, Initial residual = 0.446606, Final residual = 0.0353852, No Iterations 6
smoothSolver:  Solving for Uz, Initial residual = 0.440629, Final residual = 0.0419606, No Iterations 5
GAMG:  Solving for p, Initial residual = 0.0806905, Final residual = 0.00036871, No Iterations 5
time step continuity errors : sum local = 0.00150022, global = 3.70577e-05, cumulative = 6.01933e-05
smoothSolver:  Solving for omega, Initial residual = 0.538464, Final residual = 1.41597e-12, No Iterations 1
bounding omega, min: -1.07392e+07 max: 1.33202e+15 average: 2.06928e+09
smoothSolver:  Solving for k, Initial residual = 0.027401, Final residual = 3.80242e-07, No Iterations 1
ExecutionTime = 2.45 s  ClockTime = 3 s

forceCoeffs forceCoeffs1 write:
    Cm    = 1.15364
    Cd    = 2.81905
    Cl    = -0.575545
    Cl(f) = 0.865865
    Cl(r) = -1.44141

Time = 5

smoothSolver:  Solving for Ux, Initial residual = 0.0235555, Final residual = 0.001887, No Iterations 7
smoothSolver:  Solving for Uy, Initial residual = 0.345336, Final residual = 0.0333658, No Iterations 6
smoothSolver:  Solving for Uz, Initial residual = 0.323012, Final residual = 0.0297109, No Iterations 6
GAMG:  Solving for p, Initial residual = 0.0605672, Final residual = 0.000492852, No Iterations 4
time step continuity errors : sum local = 0.002295, global = 2.18023e-05, cumulative = 8.19956e-05
smoothSolver:  Solving for omega, Initial residual = 0.538464, Final residual = 5.22371e-12, No Iterations 1
bounding omega, min: -2142.93 max: 3.99607e+14 average: 6.20793e+08
smoothSolver:  Solving for k, Initial residual = 0.00705081, Final residual = 1.11824e-06, No Iterations 1
ExecutionTime = 2.85 s  ClockTime = 3 s

forceCoeffs forceCoeffs1 write:
    Cm    = 0.642998
    Cd    = 1.59137
    Cl    = -0.331383
    Cl(f) = 0.477306
    Cl(r) = -0.808689

Time = 6

smoothSolver:  Solving for Ux, Initial residual = 0.0164083, Final residual = 0.00137491, No Iterations 7
smoothSolver:  Solving for Uy, Initial residual = 0.28406, Final residual = 0.0227317, No Iterations 7
smoothSolver:  Solving for Uz, Initial residual = 0.262972, Final residual = 0.0251591, No Iterations 6
GAMG:  Solving for p, Initial residual = 0.0532319, Final residual = 0.000391146, No Iterations 4
time step continuity errors : sum local = 0.00176371, global = 1.89751e-05, cumulative = 0.000100971
smoothSolver:  Solving for omega, Initial residual = 0.538464, Final residual = 1.83127e-11, No Iterations 1
bounding omega, min: -280.755 max: 1.19882e+14 average: 1.86239e+08
smoothSolver:  Solving for k, Initial residual = 0.0018928, Final residual = 3.29595e-06, No Iterations 1
ExecutionTime = 3.25 s  ClockTime = 4 s

forceCoeffs forceCoeffs1 write:
    Cm    = 0.412199
    Cd    = 1.00349
    Cl    = -0.140899
    Cl(f) = 0.341749
    Cl(r) = -0.482648

Time = 7

smoothSolver:  Solving for Ux, Initial residual = 0.0129764, Final residual = 0.00112808, No Iterations 7
smoothSolver:  Solving for Uy, Initial residual = 0.246348, Final residual = 0.0207725, No Iterations 7
smoothSolver:  Solving for Uz, Initial residual = 0.2329, Final residual = 0.0176972, No Iterations 7
GAMG:  Solving for p, Initial residual = 0.0482196, Final residual = 0.000339881, No Iterations 4
time step continuity errors : sum local = 0.0014911, global = 2.29352e-05, cumulative = 0.000123906
smoothSolver:  Solving for omega, Initial residual = 0.538464, Final residual = 6.89857e-11, No Iterations 1
bounding omega, min: -7557.12 max: 3.59646e+13 average: 5.58726e+07
smoothSolver:  Solving for k, Initial residual = 0.000544615, Final residual = 1.00592e-05, No Iterations 1
ExecutionTime = 3.77 s  ClockTime = 4 s

forceCoeffs forceCoeffs1 write:
    Cm    = 0.333232
    Cd    = 0.782594
    Cl    = -0.0593307
    Cl(f) = 0.303566
    Cl(r) = -0.362897

Time = 8

smoothSolver:  Solving for Ux, Initial residual = 0.010581, Final residual = 0.000982138, No Iterations 7
smoothSolver:  Solving for Uy, Initial residual = 0.215972, Final residual = 0.0188064, No Iterations 7
smoothSolver:  Solving for Uz, Initial residual = 0.212081, Final residual = 0.0173784, No Iterations 7
GAMG:  Solving for p, Initial residual = 0.0446006, Final residual = 0.0003042, No Iterations 4
time step continuity errors : sum local = 0.00130052, global = 3.31584e-05, cumulative = 0.000157064
smoothSolver:  Solving for omega, Initial residual = 0.538464, Final residual = 3.03294e-10, No Iterations 1
smoothSolver:  Solving for k, Initial residual = 0.000224153, Final residual = 1.35816e-05, No Iterations 2
ExecutionTime = 4.2 s  ClockTime = 5 s

forceCoeffs forceCoeffs1 write:
    Cm    = 0.292397
    Cd    = 0.662592
    Cl    = -0.0489769
    Cl(f) = 0.267908
    Cl(r) = -0.316885

Time = 9

smoothSolver:  Solving for Ux, Initial residual = 0.00909754, Final residual = 0.000883819, No Iterations 7
smoothSolver:  Solving for Uy, Initial residual = 0.189706, Final residual = 0.016839, No Iterations 7
smoothSolver:  Solving for Uz, Initial residual = 0.203071, Final residual = 0.0174538, No Iterations 7
GAMG:  Solving for p, Initial residual = 0.0422118, Final residual = 0.000281138, No Iterations 4
time step continuity errors : sum local = 0.00117315, global = 3.87317e-05, cumulative = 0.000195796
smoothSolver:  Solving for omega, Initial residual = 0.538464, Final residual = 9.94616e-10, No Iterations 1
smoothSolver:  Solving for k, Initial residual = 0.000283665, Final residual = 1.88635e-05, No Iterations 3
ExecutionTime = 4.63 s  ClockTime = 5 s

forceCoeffs forceCoeffs1 write:
    Cm    = 0.278781
    Cd    = 0.608127
    Cl    = -0.0541911
    Cl(f) = 0.251685
    Cl(r) = -0.305876

Time = 10

smoothSolver:  Solving for Ux, Initial residual = 0.00813417, Final residual = 0.000627601, No Iterations 8
smoothSolver:  Solving for Uy, Initial residual = 0.170779, Final residual = 0.0155212, No Iterations 7
smoothSolver:  Solving for Uz, Initial residual = 0.196534, Final residual = 0.0174051, No Iterations 7
GAMG:  Solving for p, Initial residual = 0.0404305, Final residual = 0.000267052, No Iterations 4
time step continuity errors : sum local = 0.00108103, global = 2.63595e-05, cumulative = 0.000222156
smoothSolver:  Solving for omega, Initial residual = 0.538464, Final residual = 2.24814e-09, No Iterations 1
smoothSolver:  Solving for k, Initial residual = 0.00072309, Final residual = 5.5247e-05, No Iterations 3
ExecutionTime = 5.05 s  ClockTime = 6 s

forceCoeffs forceCoeffs1 write:
    Cm    = 0.257058
    Cd    = 0.552453
    Cl    = -0.0532785
    Cl(f) = 0.230418
    Cl(r) = -0.283697

Time = 11

smoothSolver:  Solving for Ux, Initial residual = 0.00735226, Final residual = 0.000586324, No Iterations 8
smoothSolver:  Solving for Uy, Initial residual = 0.157457, Final residual = 0.0150285, No Iterations 7
smoothSolver:  Solving for Uz, Initial residual = 0.179311, Final residual = 0.0165977, No Iterations 7
GAMG:  Solving for p, Initial residual = 0.0391256, Final residual = 0.000252488, No Iterations 4
time step continuity errors : sum local = 0.000987227, global = 1.21117e-05, cumulative = 0.000234267
smoothSolver:  Solving for omega, Initial residual = 0.538463, Final residual = 3.27824e-09, No Iterations 1
bounding omega, min: -1216.19 max: 2.91313e+11 average: 453821
smoothSolver:  Solving for k, Initial residual = 0.00178044, Final residual = 0.000137693, No Iterations 3
ExecutionTime = 5.46 s  ClockTime = 6 s

forceCoeffs forceCoeffs1 write:
    Cm    = 0.245402
    Cd    = 0.523306
    Cl    = -0.0527195
    Cl(f) = 0.219043
    Cl(r) = -0.271762

Time = 12

smoothSolver:  Solving for Ux, Initial residual = 0.00679008, Final residual = 0.000559055, No Iterations 8
smoothSolver:  Solving for Uy, Initial residual = 0.148628, Final residual = 0.0113965, No Iterations 8
smoothSolver:  Solving for Uz, Initial residual = 0.161285, Final residual = 0.0154421, No Iterations 7
GAMG:  Solving for p, Initial residual = 0.0383784, Final residual = 0.000245295, No Iterations 4
time step continuity errors : sum local = 0.000923756, global = 7.20913e-07, cumulative = 0.000234988
smoothSolver:  Solving for omega, Initial residual = 0.538462, Final residual = 7.00619e-09, No Iterations 1
smoothSolver:  Solving for k, Initial residual = 0.00325169, Final residual = 0.000255899, No Iterations 3
ExecutionTime = 5.91 s  ClockTime = 6 s

forceCoeffs forceCoeffs1 write:
    Cm    = 0.231069
    Cd    = 0.491304
    Cl    = -0.0477735
    Cl(f) = 0.207183
    Cl(r) = -0.254956

Time = 13

smoothSolver:  Solving for Ux, Initial residual = 0.00637959, Final residual = 0.000544353, No Iterations 8
smoothSolver:  Solving for Uy, Initial residual = 0.142253, Final residual = 0.0111565, No Iterations 8
smoothSolver:  Solving for Uz, Initial residual = 0.149385, Final residual = 0.0115264, No Iterations 8
GAMG:  Solving for p, Initial residual = 0.0377714, Final residual = 0.000250867, No Iterations 4
time step continuity errors : sum local = 0.000907717, global = -8.58435e-06, cumulative = 0.000226404
smoothSolver:  Solving for omega, Initial residual = 0.538456, Final residual = 5.98014e-08, No Iterations 1
smoothSolver:  Solving for k, Initial residual = 0.00436164, Final residual = 0.000349654, No Iterations 3
ExecutionTime = 6.35 s  ClockTime = 7 s

forceCoeffs forceCoeffs1 write:
    Cm    = 0.220157
    Cd    = 0.471706
    Cl    = -0.0367047
    Cl(f) = 0.201805
    Cl(r) = -0.23851

Time = 14

smoothSolver:  Solving for Ux, Initial residual = 0.00608197, Final residual = 0.000533339, No Iterations 8
smoothSolver:  Solving for Uy, Initial residual = 0.134807, Final residual = 0.0108601, No Iterations 8
smoothSolver:  Solving for Uz, Initial residual = 0.143434, Final residual = 0.0113748, No Iterations 8
GAMG:  Solving for p, Initial residual = 0.0372091, Final residual = 0.000249612, No Iterations 4
time step continuity errors : sum local = 0.000863282, global = -1.35182e-05, cumulative = 0.000212886
smoothSolver:  Solving for omega, Initial residual = 0.538438, Final residual = 2.91392e-07, No Iterations 1
bounding omega, min: -118.994 max: 7.86546e+09 average: 13397.5
smoothSolver:  Solving for k, Initial residual = 0.00491625, Final residual = 0.000404277, No Iterations 3
bounding k, min: -1.18385e-07 max: 405.382 average: 0.594179
ExecutionTime = 6.76 s  ClockTime = 7 s

forceCoeffs forceCoeffs1 write:
    Cm    = 0.212257
    Cd    = 0.461489
    Cl    = -0.020064
    Cl(f) = 0.202225
    Cl(r) = -0.222289

Time = 15

smoothSolver:  Solving for Ux, Initial residual = 0.00581578, Final residual = 0.000527528, No Iterations 8
smoothSolver:  Solving for Uy, Initial residual = 0.128047, Final residual = 0.010687, No Iterations 8
smoothSolver:  Solving for Uz, Initial residual = 0.1406, Final residual = 0.0115552, No Iterations 8
GAMG:  Solving for p, Initial residual = 0.0368136, Final residual = 0.000253994, No Iterations 4
time step continuity errors : sum local = 0.000837167, global = -1.37505e-05, cumulative = 0.000199135
smoothSolver:  Solving for omega, Initial residual = 0.538372, Final residual = 1.22906e-06, No Iterations 1
smoothSolver:  Solving for k, Initial residual = 0.00514785, Final residual = 0.000432184, No Iterations 3
bounding k, min: -1.15009e-07 max: 315.156 average: 0.606849
ExecutionTime = 7.17 s  ClockTime = 8 s

forceCoeffs forceCoeffs1 write:
    Cm    = 0.205541
    Cd    = 0.458254
    Cl    = -0.000467757
    Cl(f) = 0.205307
    Cl(r) = -0.205775

Time = 16

smoothSolver:  Solving for Ux, Initial residual = 0.00560063, Final residual = 0.000524075, No Iterations 8
smoothSolver:  Solving for Uy, Initial residual = 0.121491, Final residual = 0.0105243, No Iterations 8
smoothSolver:  Solving for Uz, Initial residual = 0.136728, Final residual = 0.0116009, No Iterations 8
GAMG:  Solving for p, Initial residual = 0.0366812, Final residual = 0.000255148, No Iterations 4
time step continuity errors : sum local = 0.000798903, global = -1.13182e-05, cumulative = 0.000187817
smoothSolver:  Solving for omega, Initial residual = 0.5381, Final residual = 4.40767e-06, No Iterations 1
smoothSolver:  Solving for k, Initial residual = 0.0052483, Final residual = 0.000456042, No Iterations 3
bounding k, min: -4.32206e-08 max: 351.59 average: 0.618915
ExecutionTime = 7.62 s  ClockTime = 8 s

forceCoeffs forceCoeffs1 write:
    Cm    = 0.194918
    Cd    = 0.446654
    Cl    = 0.0186311
    Cl(f) = 0.204234
    Cl(r) = -0.185603

Time = 17

smoothSolver:  Solving for Ux, Initial residual = 0.00544248, Final residual = 0.000518815, No Iterations 8
smoothSolver:  Solving for Uy, Initial residual = 0.116071, Final residual = 0.0103409, No Iterations 8
smoothSolver:  Solving for Uz, Initial residual = 0.130298, Final residual = 0.0114232, No Iterations 8
GAMG:  Solving for p, Initial residual = 0.0365397, Final residual = 0.000254921, No Iterations 4
time step continuity errors : sum local = 0.000758452, global = -7.86361e-06, cumulative = 0.000179953
smoothSolver:  Solving for omega, Initial residual = 0.536618, Final residual = 1.43176e-05, No Iterations 1
smoothSolver:  Solving for k, Initial residual = 0.00529864, Final residual = 0.000477658, No Iterations 3
bounding k, min: -5.74329e-09 max: 375.514 average: 0.628359
ExecutionTime = 8.03 s  ClockTime = 8 s

forceCoeffs forceCoeffs1 write:
    Cm    = 0.186801
    Cd    = 0.440086
    Cl    = 0.0271726
    Cl(f) = 0.200387
    Cl(r) = -0.173214

Time = 18

smoothSolver:  Solving for Ux, Initial residual = 0.00527074, Final residual = 0.000512531, No Iterations 8
smoothSolver:  Solving for Uy, Initial residual = 0.111999, Final residual = 0.0102038, No Iterations 8
smoothSolver:  Solving for Uz, Initial residual = 0.121984, Final residual = 0.0110056, No Iterations 8
GAMG:  Solving for p, Initial residual = 0.036355, Final residual = 0.000250917, No Iterations 4
time step continuity errors : sum local = 0.000710743, global = -4.66564e-06, cumulative = 0.000175288
smoothSolver:  Solving for omega, Initial residual = 0.525639, Final residual = 4.76834e-05, No Iterations 1
smoothSolver:  Solving for k, Initial residual = 0.0053772, Final residual = 0.000499588, No Iterations 3
bounding k, min: -1.98064e-07 max: 382.732 average: 0.637031
ExecutionTime = 8.42 s  ClockTime = 9 s

forceCoeffs forceCoeffs1 write:
    Cm    = 0.180496
    Cd    = 0.430495
    Cl    = 0.0291164
    Cl(f) = 0.195055
    Cl(r) = -0.165938

Time = 19

smoothSolver:  Solving for Ux, Initial residual = 0.00509364, Final residual = 0.000505234, No Iterations 8
smoothSolver:  Solving for Uy, Initial residual = 0.109453, Final residual = 0.0100984, No Iterations 8
smoothSolver:  Solving for Uz, Initial residual = 0.113612, Final residual = 0.0104872, No Iterations 8
GAMG:  Solving for p, Initial residual = 0.0361575, Final residual = 0.000251704, No Iterations 4
time step continuity errors : sum local = 0.000681268, global = -1.46043e-06, cumulative = 0.000173827
smoothSolver:  Solving for omega, Initial residual = 0.440546, Final residual = 0.000166871, No Iterations 1
smoothSolver:  Solving for k, Initial residual = 0.00550291, Final residual = 0.000520952, No Iterations 3
ExecutionTime = 8.86 s  ClockTime = 9 s

forceCoeffs forceCoeffs1 write:
    Cm    = 0.177823
    Cd    = 0.426408
    Cl    = 0.0253142
    Cl(f) = 0.19048
    Cl(r) = -0.165166

Time = 20

smoothSolver:  Solving for Ux, Initial residual = 0.00488962, Final residual = 0.000387388, No Iterations 9
smoothSolver:  Solving for Uy, Initial residual = 0.105363, Final residual = 0.0100064, No Iterations 8
smoothSolver:  Solving for Uz, Initial residual = 0.104821, Final residual = 0.010019, No Iterations 8
GAMG:  Solving for p, Initial residual = 0.0355847, Final residual = 0.000256974, No Iterations 4
time step continuity errors : sum local = 0.000668681, global = -1.67808e-07, cumulative = 0.00017366
smoothSolver:  Solving for omega, Initial residual = 0.164877, Final residual = 0.000359569, No Iterations 1
smoothSolver:  Solving for k, Initial residual = 0.00548971, Final residual = 0.000541205, No Iterations 3
ExecutionTime = 9.28 s  ClockTime = 10 s

forceCoeffs forceCoeffs1 write:
    Cm    = 0.176497
    Cd    = 0.42542
    Cl    = 0.0186317
    Cl(f) = 0.185812
    Cl(r) = -0.167181

Time = 21

smoothSolver:  Solving for Ux, Initial residual = 0.0046781, Final residual = 0.000381143, No Iterations 9
smoothSolver:  Solving for Uy, Initial residual = 0.102854, Final residual = 0.0100085, No Iterations 8
smoothSolver:  Solving for Uz, Initial residual = 0.099178, Final residual = 0.00977534, No Iterations 8
GAMG:  Solving for p, Initial residual = 0.0347742, Final residual = 0.000249901, No Iterations 4
time step continuity errors : sum local = 0.000631466, global = 6.13797e-07, cumulative = 0.000174273
smoothSolver:  Solving for omega, Initial residual = 0.0221712, Final residual = 0.000365743, No Iterations 1
smoothSolver:  Solving for k, Initial residual = 0.00570688, Final residual = 0.000564348, No Iterations 3
ExecutionTime = 9.7 s  ClockTime = 10 s

forceCoeffs forceCoeffs1 write:
    Cm    = 0.175943
    Cd    = 0.425156
    Cl    = 0.0143887
    Cl(f) = 0.183137
    Cl(r) = -0.168748

Time = 22

smoothSolver:  Solving for Ux, Initial residual = 0.00452852, Final residual = 0.000376456, No Iterations 9
smoothSolver:  Solving for Uy, Initial residual = 0.101648, Final residual = 0.0101095, No Iterations 8
smoothSolver:  Solving for Uz, Initial residual = 0.0953787, Final residual = 0.00747859, No Iterations 9
GAMG:  Solving for p, Initial residual = 0.0336706, Final residual = 0.000243136, No Iterations 4
time step continuity errors : sum local = 0.000599025, global = 1.30421e-06, cumulative = 0.000175578
smoothSolver:  Solving for omega, Initial residual = 0.00287863, Final residual = 0.000134649, No Iterations 2
smoothSolver:  Solving for k, Initial residual = 0.00566024, Final residual = 0.000276579, No Iterations 4
ExecutionTime = 10.13 s  ClockTime = 11 s

forceCoeffs forceCoeffs1 write:
    Cm    = 0.173852
    Cd    = 0.421505
    Cl    = 0.0106466
    Cl(f) = 0.179175
    Cl(r) = -0.168529

Time = 23

smoothSolver:  Solving for Ux, Initial residual = 0.00436104, Final residual = 0.000370168, No Iterations 9
smoothSolver:  Solving for Uy, Initial residual = 0.101187, Final residual = 0.00801462, No Iterations 9
smoothSolver:  Solving for Uz, Initial residual = 0.0912886, Final residual = 0.00728668, No Iterations 9
GAMG:  Solving for p, Initial residual = 0.032608, Final residual = 0.000238638, No Iterations 4
time step continuity errors : sum local = 0.00057413, global = 1.52658e-06, cumulative = 0.000177104
smoothSolver:  Solving for omega, Initial residual = 0.000882942, Final residual = 5.51941e-05, No Iterations 3
smoothSolver:  Solving for k, Initial residual = 0.00565275, Final residual = 0.000279275, No Iterations 4
ExecutionTime = 10.57 s  ClockTime = 11 s

forceCoeffs forceCoeffs1 write:
    Cm    = 0.174069
    Cd    = 0.422459
    Cl    = 0.0126517
    Cl(f) = 0.180395
    Cl(r) = -0.167743

Time = 24

smoothSolver:  Solving for Ux, Initial residual = 0.00422146, Final residual = 0.000363439, No Iterations 9
smoothSolver:  Solving for Uy, Initial residual = 0.0993625, Final residual = 0.00801685, No Iterations 9
smoothSolver:  Solving for Uz, Initial residual = 0.0872566, Final residual = 0.00707379, No Iterations 9
GAMG:  Solving for p, Initial residual = 0.031646, Final residual = 0.000239699, No Iterations 4
time step continuity errors : sum local = 0.000563142, global = -2.17389e-07, cumulative = 0.000176887
smoothSolver:  Solving for omega, Initial residual = 0.000621926, Final residual = 5.03044e-05, No Iterations 3
smoothSolver:  Solving for k, Initial residual = 0.00565474, Final residual = 0.000284261, No Iterations 4
ExecutionTime = 10.98 s  ClockTime = 11 s

forceCoeffs forceCoeffs1 write:
    Cm    = 0.173034
    Cd    = 0.421082
    Cl    = 0.0153686
    Cl(f) = 0.180718
    Cl(r) = -0.16535

Time = 25

smoothSolver:  Solving for Ux, Initial residual = 0.00406197, Final residual = 0.000356968, No Iterations 9
smoothSolver:  Solving for Uy, Initial residual = 0.0953122, Final residual = 0.00782941, No Iterations 9
smoothSolver:  Solving for Uz, Initial residual = 0.0825779, Final residual = 0.00688321, No Iterations 9
GAMG:  Solving for p, Initial residual = 0.0308241, Final residual = 0.000234812, No Iterations 4
time step continuity errors : sum local = 0.000537996, global = -5.0318e-06, cumulative = 0.000171855
smoothSolver:  Solving for omega, Initial residual = 0.000558852, Final residual = 4.6594e-05, No Iterations 3
smoothSolver:  Solving for k, Initial residual = 0.00567031, Final residual = 0.000288755, No Iterations 4
ExecutionTime = 11.41 s  ClockTime = 12 s

forceCoeffs forceCoeffs1 write:
    Cm    = 0.173328
    Cd    = 0.422268
    Cl    = 0.0225803
    Cl(f) = 0.184618
    Cl(r) = -0.162038

Time = 26

smoothSolver:  Solving for Ux, Initial residual = 0.00395293, Final residual = 0.000351642, No Iterations 9
smoothSolver:  Solving for Uy, Initial residual = 0.0908287, Final residual = 0.00755207, No Iterations 9
smoothSolver:  Solving for Uz, Initial residual = 0.0780294, Final residual = 0.00659966, No Iterations 9
GAMG:  Solving for p, Initial residual = 0.0299325, Final residual = 0.000224996, No Iterations 4
time step continuity errors : sum local = 0.000500735, global = -1.15101e-05, cumulative = 0.000160345
smoothSolver:  Solving for omega, Initial residual = 0.000514444, Final residual = 4.3797e-05, No Iterations 3
smoothSolver:  Solving for k, Initial residual = 0.00557115, Final residual = 0.000287872, No Iterations 4
ExecutionTime = 11.8 s  ClockTime = 12 s

forceCoeffs forceCoeffs1 write:
    Cm    = 0.172757
    Cd    = 0.422216
    Cl    = 0.0285949
    Cl(f) = 0.187055
    Cl(r) = -0.15846

Time = 27

smoothSolver:  Solving for Ux, Initial residual = 0.0038011, Final residual = 0.000345375, No Iterations 9
smoothSolver:  Solving for Uy, Initial residual = 0.0870755, Final residual = 0.00734808, No Iterations 9
smoothSolver:  Solving for Uz, Initial residual = 0.0727346, Final residual = 0.00628718, No Iterations 9
GAMG:  Solving for p, Initial residual = 0.029068, Final residual = 0.000215776, No Iterations 4
time step continuity errors : sum local = 0.000466803, global = -1.81478e-05, cumulative = 0.000142197
smoothSolver:  Solving for omega, Initial residual = 0.000483889, Final residual = 4.14973e-05, No Iterations 3
smoothSolver:  Solving for k, Initial residual = 0.00548213, Final residual = 0.000285467, No Iterations 4
ExecutionTime = 12.22 s  ClockTime = 13 s

forceCoeffs forceCoeffs1 write:
    Cm    = 0.172451
    Cd    = 0.42324
    Cl    = 0.0369369
    Cl(f) = 0.190919
    Cl(r) = -0.153982

Time = 28

smoothSolver:  Solving for Ux, Initial residual = 0.00367072, Final residual = 0.000336656, No Iterations 9
smoothSolver:  Solving for Uy, Initial residual = 0.082867, Final residual = 0.0070786, No Iterations 9
smoothSolver:  Solving for Uz, Initial residual = 0.0681261, Final residual = 0.00597573, No Iterations 9
GAMG:  Solving for p, Initial residual = 0.0283412, Final residual = 0.000211783, No Iterations 4
time step continuity errors : sum local = 0.000444967, global = -2.31376e-05, cumulative = 0.000119059
smoothSolver:  Solving for omega, Initial residual = 0.000460782, Final residual = 3.95178e-05, No Iterations 3
smoothSolver:  Solving for k, Initial residual = 0.00539556, Final residual = 0.000282701, No Iterations 4
ExecutionTime = 12.63 s  ClockTime = 13 s

forceCoeffs forceCoeffs1 write:
    Cm    = 0.170277
    Cd    = 0.420031
    Cl    = 0.0442936
    Cl(f) = 0.192424
    Cl(r) = -0.14813

Time = 29

smoothSolver:  Solving for Ux, Initial residual = 0.00353448, Final residual = 0.000325602, No Iterations 9
smoothSolver:  Solving for Uy, Initial residual = 0.0789854, Final residual = 0.0068513, No Iterations 9
smoothSolver:  Solving for Uz, Initial residual = 0.0641304, Final residual = 0.00569438, No Iterations 9
GAMG:  Solving for p, Initial residual = 0.0277011, Final residual = 0.00021117, No Iterations 4
time step continuity errors : sum local = 0.000431097, global = -2.6106e-05, cumulative = 9.29535e-05
smoothSolver:  Solving for omega, Initial residual = 0.000438068, Final residual = 3.79887e-05, No Iterations 3
smoothSolver:  Solving for k, Initial residual = 0.00533946, Final residual = 0.000281145, No Iterations 4
ExecutionTime = 13.07 s  ClockTime = 14 s

forceCoeffs forceCoeffs1 write:
    Cm    = 0.168263
    Cd    = 0.417116
    Cl    = 0.0501477
    Cl(f) = 0.193337
    Cl(r) = -0.143189

Time = 30

smoothSolver:  Solving for Ux, Initial residual = 0.0034101, Final residual = 0.000314019, No Iterations 9
smoothSolver:  Solving for Uy, Initial residual = 0.0760561, Final residual = 0.00674275, No Iterations 9
smoothSolver:  Solving for Uz, Initial residual = 0.0612442, Final residual = 0.00546528, No Iterations 9
GAMG:  Solving for p, Initial residual = 0.027137, Final residual = 0.000209396, No Iterations 4
time step continuity errors : sum local = 0.000415519, global = -2.69206e-05, cumulative = 6.60329e-05
smoothSolver:  Solving for omega, Initial residual = 0.000421869, Final residual = 3.6706e-05, No Iterations 3
smoothSolver:  Solving for k, Initial residual = 0.00531045, Final residual = 0.00028079, No Iterations 4
ExecutionTime = 13.47 s  ClockTime = 14 s

forceCoeffs forceCoeffs1 write:
    Cm    = 0.165636
    Cd    = 0.411766
    Cl    = 0.0542643
    Cl(f) = 0.192768
    Cl(r) = -0.138504

Time = 31

smoothSolver:  Solving for Ux, Initial residual = 0.00328992, Final residual = 0.000303849, No Iterations 9
smoothSolver:  Solving for Uy, Initial residual = 0.0740159, Final residual = 0.00666152, No Iterations 9
smoothSolver:  Solving for Uz, Initial residual = 0.0589233, Final residual = 0.00527604, No Iterations 9
GAMG:  Solving for p, Initial residual = 0.0265861, Final residual = 0.000207848, No Iterations 4
time step continuity errors : sum local = 0.000401374, global = -2.81936e-05, cumulative = 3.78393e-05
smoothSolver:  Solving for omega, Initial residual = 0.000408337, Final residual = 3.55339e-05, No Iterations 3
smoothSolver:  Solving for k, Initial residual = 0.00528507, Final residual = 0.000279547, No Iterations 4
ExecutionTime = 13.89 s  ClockTime = 14 s

forceCoeffs forceCoeffs1 write:
    Cm    = 0.164676
    Cd    = 0.408352
    Cl    = 0.0564859
    Cl(f) = 0.192919
    Cl(r) = -0.136433

Time = 32

smoothSolver:  Solving for Ux, Initial residual = 0.00318297, Final residual = 0.000295439, No Iterations 9
smoothSolver:  Solving for Uy, Initial residual = 0.0722741, Final residual = 0.00649459, No Iterations 9
smoothSolver:  Solving for Uz, Initial residual = 0.0569407, Final residual = 0.00509284, No Iterations 9
GAMG:  Solving for p, Initial residual = 0.0261445, Final residual = 0.000206514, No Iterations 4
time step continuity errors : sum local = 0.000389444, global = -2.98593e-05, cumulative = 7.98003e-06
smoothSolver:  Solving for omega, Initial residual = 0.000395578, Final residual = 3.4452e-05, No Iterations 3
smoothSolver:  Solving for k, Initial residual = 0.00522179, Final residual = 0.000276462, No Iterations 4
ExecutionTime = 14.31 s  ClockTime = 15 s

forceCoeffs forceCoeffs1 write:
    Cm    = 0.164704
    Cd    = 0.40568
    Cl    = 0.0579037
    Cl(f) = 0.193656
    Cl(r) = -0.135752

Time = 33

smoothSolver:  Solving for Ux, Initial residual = 0.00307874, Final residual = 0.000288092, No Iterations 9
smoothSolver:  Solving for Uy, Initial residual = 0.0705361, Final residual = 0.00628517, No Iterations 9
smoothSolver:  Solving for Uz, Initial residual = 0.0547998, Final residual = 0.00489784, No Iterations 9
GAMG:  Solving for p, Initial residual = 0.0255782, Final residual = 0.000204794, No Iterations 4
time step continuity errors : sum local = 0.000378323, global = -2.97916e-05, cumulative = -2.18116e-05
smoothSolver:  Solving for omega, Initial residual = 0.000379261, Final residual = 3.33845e-05, No Iterations 3
smoothSolver:  Solving for k, Initial residual = 0.00513844, Final residual = 0.000272284, No Iterations 4
ExecutionTime = 14.72 s  ClockTime = 15 s

forceCoeffs forceCoeffs1 write:
    Cm    = 0.165943
    Cd    = 0.404917
    Cl    = 0.0586871
    Cl(f) = 0.195287
    Cl(r) = -0.1366

Time = 34

smoothSolver:  Solving for Ux, Initial residual = 0.00297875, Final residual = 0.000279431, No Iterations 9
smoothSolver:  Solving for Uy, Initial residual = 0.068671, Final residual = 0.00609442, No Iterations 9
smoothSolver:  Solving for Uz, Initial residual = 0.0524846, Final residual = 0.00470036, No Iterations 9
GAMG:  Solving for p, Initial residual = 0.02495, Final residual = 0.000202341, No Iterations 4
time step continuity errors : sum local = 0.000367064, global = -2.74792e-05, cumulative = -4.92907e-05
smoothSolver:  Solving for omega, Initial residual = 0.000367079, Final residual = 3.2473e-05, No Iterations 3
smoothSolver:  Solving for k, Initial residual = 0.00506145, Final residual = 0.000267658, No Iterations 4
ExecutionTime = 15.12 s  ClockTime = 16 s

forceCoeffs forceCoeffs1 write:
    Cm    = 0.166969
    Cd    = 0.4044
    Cl    = 0.0599504
    Cl(f) = 0.196945
    Cl(r) = -0.136994

Time = 35

smoothSolver:  Solving for Ux, Initial residual = 0.0028857, Final residual = 0.000270752, No Iterations 9
smoothSolver:  Solving for Uy, Initial residual = 0.0665934, Final residual = 0.00590756, No Iterations 9
smoothSolver:  Solving for Uz, Initial residual = 0.0501367, Final residual = 0.00452106, No Iterations 9
GAMG:  Solving for p, Initial residual = 0.0242636, Final residual = 0.000198688, No Iterations 4
time step continuity errors : sum local = 0.00035441, global = -2.31976e-05, cumulative = -7.24883e-05
smoothSolver:  Solving for omega, Initial residual = 0.000354488, Final residual = 3.15551e-05, No Iterations 3
smoothSolver:  Solving for k, Initial residual = 0.00497063, Final residual = 0.000262999, No Iterations 4
ExecutionTime = 15.54 s  ClockTime = 16 s

forceCoeffs forceCoeffs1 write:
    Cm    = 0.167423
    Cd    = 0.40466
    Cl    = 0.0614543
    Cl(f) = 0.19815
    Cl(r) = -0.136695

Time = 36

smoothSolver:  Solving for Ux, Initial residual = 0.00280389, Final residual = 0.000264981, No Iterations 9
smoothSolver:  Solving for Uy, Initial residual = 0.0641401, Final residual = 0.00572575, No Iterations 9
smoothSolver:  Solving for Uz, Initial residual = 0.0479259, Final residual = 0.0043674, No Iterations 9
GAMG:  Solving for p, Initial residual = 0.0236174, Final residual = 0.000190428, No Iterations 4
time step continuity errors : sum local = 0.000334437, global = -1.81949e-05, cumulative = -9.06832e-05
smoothSolver:  Solving for omega, Initial residual = 0.000344907, Final residual = 3.08341e-05, No Iterations 3
smoothSolver:  Solving for k, Initial residual = 0.00488062, Final residual = 0.000258048, No Iterations 4
ExecutionTime = 15.96 s  ClockTime = 16 s

forceCoeffs forceCoeffs1 write:
    Cm    = 0.165957
    Cd    = 0.40297
    Cl    = 0.0627436
    Cl(f) = 0.197329
    Cl(r) = -0.134585

Time = 37

smoothSolver:  Solving for Ux, Initial residual = 0.00272783, Final residual = 0.000260029, No Iterations 9
smoothSolver:  Solving for Uy, Initial residual = 0.0616904, Final residual = 0.00558074, No Iterations 9
smoothSolver:  Solving for Uz, Initial residual = 0.0459955, Final residual = 0.00423104, No Iterations 9
GAMG:  Solving for p, Initial residual = 0.0229517, Final residual = 0.000178459, No Iterations 4
time step continuity errors : sum local = 0.00030869, global = -1.42831e-05, cumulative = -0.000104966
smoothSolver:  Solving for omega, Initial residual = 0.000335101, Final residual = 3.0106e-05, No Iterations 3
smoothSolver:  Solving for k, Initial residual = 0.00478472, Final residual = 0.000253581, No Iterations 4
ExecutionTime = 16.4 s  ClockTime = 17 s

forceCoeffs forceCoeffs1 write:
    Cm    = 0.163538
    Cd    = 0.400629
    Cl    = 0.063812
    Cl(f) = 0.195444
    Cl(r) = -0.131632

Time = 38

smoothSolver:  Solving for Ux, Initial residual = 0.0026486, Final residual = 0.000255564, No Iterations 9
smoothSolver:  Solving for Uy, Initial residual = 0.0592517, Final residual = 0.00543668, No Iterations 9
smoothSolver:  Solving for Uz, Initial residual = 0.0441755, Final residual = 0.00410016, No Iterations 9
GAMG:  Solving for p, Initial residual = 0.0222511, Final residual = 0.000167804, No Iterations 4
time step continuity errors : sum local = 0.000285685, global = -1.26169e-05, cumulative = -0.000117583
smoothSolver:  Solving for omega, Initial residual = 0.000325691, Final residual = 2.9419e-05, No Iterations 3
smoothSolver:  Solving for k, Initial residual = 0.00467954, Final residual = 0.000249448, No Iterations 4
ExecutionTime = 16.82 s  ClockTime = 17 s

forceCoeffs forceCoeffs1 write:
    Cm    = 0.160165
    Cd    = 0.396876
    Cl    = 0.0646456
    Cl(f) = 0.192488
    Cl(r) = -0.127843

Time = 39

smoothSolver:  Solving for Ux, Initial residual = 0.00257204, Final residual = 0.000250811, No Iterations 9
smoothSolver:  Solving for Uy, Initial residual = 0.0569294, Final residual = 0.00525489, No Iterations 9
smoothSolver:  Solving for Uz, Initial residual = 0.0424456, Final residual = 0.0039752, No Iterations 9
GAMG:  Solving for p, Initial residual = 0.0215363, Final residual = 0.000159362, No Iterations 4
time step continuity errors : sum local = 0.000267305, global = -1.27667e-05, cumulative = -0.00013035
smoothSolver:  Solving for omega, Initial residual = 0.000317312, Final residual = 2.87854e-05, No Iterations 3
smoothSolver:  Solving for k, Initial residual = 0.00456394, Final residual = 0.000244841, No Iterations 4
ExecutionTime = 17.24 s  ClockTime = 18 s

forceCoeffs forceCoeffs1 write:
    Cm    = 0.157352
    Cd    = 0.394005
    Cl    = 0.0650886
    Cl(f) = 0.189896
    Cl(r) = -0.124807

Time = 40

smoothSolver:  Solving for Ux, Initial residual = 0.00250358, Final residual = 0.000246665, No Iterations 9
smoothSolver:  Solving for Uy, Initial residual = 0.0544131, Final residual = 0.00504988, No Iterations 9
smoothSolver:  Solving for Uz, Initial residual = 0.0407712, Final residual = 0.00386055, No Iterations 9
GAMG:  Solving for p, Initial residual = 0.0208617, Final residual = 0.000153203, No Iterations 4
time step continuity errors : sum local = 0.000253445, global = -1.36515e-05, cumulative = -0.000144001
smoothSolver:  Solving for omega, Initial residual = 0.000308681, Final residual = 2.8002e-05, No Iterations 3
smoothSolver:  Solving for k, Initial residual = 0.00444286, Final residual = 0.000238375, No Iterations 4
ExecutionTime = 17.64 s  ClockTime = 18 s

forceCoeffs forceCoeffs1 write:
    Cm    = 0.155214
    Cd    = 0.391485
    Cl    = 0.0649636
    Cl(f) = 0.187695
    Cl(r) = -0.122732

Time = 41

smoothSolver:  Solving for Ux, Initial residual = 0.00244499, Final residual = 0.000243207, No Iterations 9
smoothSolver:  Solving for Uy, Initial residual = 0.0519032, Final residual = 0.00485208, No Iterations 9
smoothSolver:  Solving for Uz, Initial residual = 0.039413, Final residual = 0.00377686, No Iterations 9
GAMG:  Solving for p, Initial residual = 0.0202193, Final residual = 0.000150728, No Iterations 4
time step continuity errors : sum local = 0.000246285, global = -1.41464e-05, cumulative = -0.000158148
smoothSolver:  Solving for omega, Initial residual = 0.000299915, Final residual = 2.71596e-05, No Iterations 3
smoothSolver:  Solving for k, Initial residual = 0.00433483, Final residual = 0.000230911, No Iterations 4
ExecutionTime = 18.03 s  ClockTime = 19 s

forceCoeffs forceCoeffs1 write:
    Cm    = 0.154156
    Cd    = 0.389887
    Cl    = 0.0643233
    Cl(f) = 0.186317
    Cl(r) = -0.121994

Time = 42

smoothSolver:  Solving for Ux, Initial residual = 0.00239713, Final residual = 0.000188705, No Iterations 10
smoothSolver:  Solving for Uy, Initial residual = 0.0495873, Final residual = 0.00466902, No Iterations 9
smoothSolver:  Solving for Uz, Initial residual = 0.0383111, Final residual = 0.00368988, No Iterations 9
GAMG:  Solving for p, Initial residual = 0.0197093, Final residual = 0.000149311, No Iterations 4
time step continuity errors : sum local = 0.000241435, global = -1.42017e-05, cumulative = -0.000172349
smoothSolver:  Solving for omega, Initial residual = 0.000291275, Final residual = 2.6355e-05, No Iterations 3
smoothSolver:  Solving for k, Initial residual = 0.00424395, Final residual = 0.000225145, No Iterations 4
ExecutionTime = 18.43 s  ClockTime = 19 s

forceCoeffs forceCoeffs1 write:
    Cm    = 0.153992
    Cd    = 0.388939
    Cl    = 0.0632637
    Cl(f) = 0.185624
    Cl(r) = -0.12236

Time = 43

smoothSolver:  Solving for Ux, Initial residual = 0.00234441, Final residual = 0.000185332, No Iterations 10
smoothSolver:  Solving for Uy, Initial residual = 0.0478337, Final residual = 0.00450461, No Iterations 9
smoothSolver:  Solving for Uz, Initial residual = 0.0374687, Final residual = 0.00359932, No Iterations 9
GAMG:  Solving for p, Initial residual = 0.019362, Final residual = 0.000145993, No Iterations 4
time step continuity errors : sum local = 0.00023393, global = -1.30401e-05, cumulative = -0.000185389
smoothSolver:  Solving for omega, Initial residual = 0.000284413, Final residual = 2.56437e-05, No Iterations 3
smoothSolver:  Solving for k, Initial residual = 0.00416346, Final residual = 0.000220968, No Iterations 4
ExecutionTime = 18.85 s  ClockTime = 19 s

forceCoeffs forceCoeffs1 write:
    Cm    = 0.154533
    Cd    = 0.388793
    Cl    = 0.0624044
    Cl(f) = 0.185736
    Cl(r) = -0.123331

Time = 44

smoothSolver:  Solving for Ux, Initial residual = 0.00229587, Final residual = 0.00018147, No Iterations 10
smoothSolver:  Solving for Uy, Initial residual = 0.0462917, Final residual = 0.00434832, No Iterations 9
smoothSolver:  Solving for Uz, Initial residual = 0.0367154, Final residual = 0.00350318, No Iterations 9
GAMG:  Solving for p, Initial residual = 0.0191212, Final residual = 0.000142039, No Iterations 4
time step continuity errors : sum local = 0.000225922, global = -1.11528e-05, cumulative = -0.000196542
smoothSolver:  Solving for omega, Initial residual = 0.000276687, Final residual = 2.50276e-05, No Iterations 3
smoothSolver:  Solving for k, Initial residual = 0.00409538, Final residual = 0.000218087, No Iterations 4
ExecutionTime = 19.25 s  ClockTime = 20 s

forceCoeffs forceCoeffs1 write:
    Cm    = 0.155424
    Cd    = 0.389015
    Cl    = 0.0620215
    Cl(f) = 0.186435
    Cl(r) = -0.124414

Time = 45

smoothSolver:  Solving for Ux, Initial residual = 0.00224705, Final residual = 0.000177665, No Iterations 10
smoothSolver:  Solving for Uy, Initial residual = 0.0450623, Final residual = 0.00421809, No Iterations 9
smoothSolver:  Solving for Uz, Initial residual = 0.0359114, Final residual = 0.00340215, No Iterations 9
GAMG:  Solving for p, Initial residual = 0.0187855, Final residual = 0.000139431, No Iterations 4
time step continuity errors : sum local = 0.00022024, global = -9.3221e-06, cumulative = -0.000205864
smoothSolver:  Solving for omega, Initial residual = 0.000269445, Final residual = 2.44275e-05, No Iterations 3
smoothSolver:  Solving for k, Initial residual = 0.00403148, Final residual = 0.000214857, No Iterations 4
ExecutionTime = 19.67 s  ClockTime = 20 s

forceCoeffs forceCoeffs1 write:
    Cm    = 0.156434
    Cd    = 0.389634
    Cl    = 0.0621948
    Cl(f) = 0.187531
    Cl(r) = -0.125337

Time = 46

smoothSolver:  Solving for Ux, Initial residual = 0.00219541, Final residual = 0.000174404, No Iterations 10
smoothSolver:  Solving for Uy, Initial residual = 0.0440352, Final residual = 0.0041203, No Iterations 9
smoothSolver:  Solving for Uz, Initial residual = 0.0349808, Final residual = 0.00329669, No Iterations 9
GAMG:  Solving for p, Initial residual = 0.0183978, Final residual = 0.00013807, No Iterations 4
time step continuity errors : sum local = 0.000216927, global = -8.07384e-06, cumulative = -0.000213938
smoothSolver:  Solving for omega, Initial residual = 0.000261365, Final residual = 2.38204e-05, No Iterations 3
smoothSolver:  Solving for k, Initial residual = 0.00396009, Final residual = 0.000211139, No Iterations 4
ExecutionTime = 20.06 s  ClockTime = 21 s

forceCoeffs forceCoeffs1 write:
    Cm    = 0.157398
    Cd    = 0.390447
    Cl    = 0.0630589
    Cl(f) = 0.188927
    Cl(r) = -0.125868

Time = 47

smoothSolver:  Solving for Ux, Initial residual = 0.0021427, Final residual = 0.000171807, No Iterations 10
smoothSolver:  Solving for Uy, Initial residual = 0.0431752, Final residual = 0.00405728, No Iterations 9
smoothSolver:  Solving for Uz, Initial residual = 0.0341082, Final residual = 0.00319897, No Iterations 9
GAMG:  Solving for p, Initial residual = 0.0179929, Final residual = 0.000134501, No Iterations 4
time step continuity errors : sum local = 0.000210566, global = -7.17676e-06, cumulative = -0.000221115
smoothSolver:  Solving for omega, Initial residual = 0.000254412, Final residual = 2.3233e-05, No Iterations 3
smoothSolver:  Solving for k, Initial residual = 0.00389761, Final residual = 0.000207472, No Iterations 4
ExecutionTime = 20.45 s  ClockTime = 21 s

forceCoeffs forceCoeffs1 write:
    Cm    = 0.158232
    Cd    = 0.391591
    Cl    = 0.0644927
    Cl(f) = 0.190479
    Cl(r) = -0.125986

Time = 48

smoothSolver:  Solving for Ux, Initial residual = 0.00209782, Final residual = 0.000168519, No Iterations 10
smoothSolver:  Solving for Uy, Initial residual = 0.0422841, Final residual = 0.00399823, No Iterations 9
smoothSolver:  Solving for Uz, Initial residual = 0.0333289, Final residual = 0.00311865, No Iterations 9
GAMG:  Solving for p, Initial residual = 0.0175867, Final residual = 0.000129265, No Iterations 4
time step continuity errors : sum local = 0.00020193, global = -6.49178e-06, cumulative = -0.000227607
smoothSolver:  Solving for omega, Initial residual = 0.000247946, Final residual = 2.27374e-05, No Iterations 3
smoothSolver:  Solving for k, Initial residual = 0.00384409, Final residual = 0.000203618, No Iterations 4
ExecutionTime = 20.89 s  ClockTime = 21 s

forceCoeffs forceCoeffs1 write:
    Cm    = 0.158971
    Cd    = 0.393032
    Cl    = 0.0661392
    Cl(f) = 0.192041
    Cl(r) = -0.125902

Time = 49

smoothSolver:  Solving for Ux, Initial residual = 0.00205203, Final residual = 0.000164154, No Iterations 10
smoothSolver:  Solving for Uy, Initial residual = 0.0413604, Final residual = 0.0039148, No Iterations 9
smoothSolver:  Solving for Uz, Initial residual = 0.0326718, Final residual = 0.00305216, No Iterations 9
GAMG:  Solving for p, Initial residual = 0.017263, Final residual = 0.000126862, No Iterations 4
time step continuity errors : sum local = 0.00019794, global = -5.76079e-06, cumulative = -0.000233367
smoothSolver:  Solving for omega, Initial residual = 0.000242737, Final residual = 2.22488e-05, No Iterations 3
smoothSolver:  Solving for k, Initial residual = 0.00378502, Final residual = 0.000199263, No Iterations 4
ExecutionTime = 21.32 s  ClockTime = 22 s

forceCoeffs forceCoeffs1 write:
    Cm    = 0.159565
    Cd    = 0.394803
    Cl    = 0.0677197
    Cl(f) = 0.193425
    Cl(r) = -0.125705

Time = 50

smoothSolver:  Solving for Ux, Initial residual = 0.00200509, Final residual = 0.000159107, No Iterations 10
smoothSolver:  Solving for Uy, Initial residual = 0.0403382, Final residual = 0.00379304, No Iterations 9
smoothSolver:  Solving for Uz, Initial residual = 0.0321949, Final residual = 0.00299934, No Iterations 9
GAMG:  Solving for p, Initial residual = 0.0169839, Final residual = 0.000126415, No Iterations 4
time step continuity errors : sum local = 0.000197084, global = -4.97928e-06, cumulative = -0.000238347
smoothSolver:  Solving for omega, Initial residual = 0.000239128, Final residual = 2.1794e-05, No Iterations 3
smoothSolver:  Solving for k, Initial residual = 0.00372435, Final residual = 0.000194883, No Iterations 4
ExecutionTime = 21.73 s  ClockTime = 22 s

forceCoeffs forceCoeffs1 write:
    Cm    = 0.159976
    Cd    = 0.396562
    Cl    = 0.0690675
    Cl(f) = 0.19451
    Cl(r) = -0.125442

Time = 51

smoothSolver:  Solving for Ux, Initial residual = 0.00196228, Final residual = 0.000154319, No Iterations 10
smoothSolver:  Solving for Uy, Initial residual = 0.0391425, Final residual = 0.00365327, No Iterations 9
smoothSolver:  Solving for Uz, Initial residual = 0.0319602, Final residual = 0.00296075, No Iterations 9
GAMG:  Solving for p, Initial residual = 0.0166518, Final residual = 0.000124757, No Iterations 4
time step continuity errors : sum local = 0.000194235, global = -4.19077e-06, cumulative = -0.000242538
smoothSolver:  Solving for omega, Initial residual = 0.0002361, Final residual = 2.13657e-05, No Iterations 3
smoothSolver:  Solving for k, Initial residual = 0.00366375, Final residual = 0.000191098, No Iterations 4
ExecutionTime = 22.15 s  ClockTime = 23 s

forceCoeffs forceCoeffs1 write:
    Cm    = 0.160166
    Cd    = 0.398212
    Cl    = 0.0702422
    Cl(f) = 0.195287
    Cl(r) = -0.125045

Time = 52

smoothSolver:  Solving for Ux, Initial residual = 0.00191343, Final residual = 0.000150378, No Iterations 10
smoothSolver:  Solving for Uy, Initial residual = 0.0382641, Final residual = 0.00353893, No Iterations 9
smoothSolver:  Solving for Uz, Initial residual = 0.0318556, Final residual = 0.00293905, No Iterations 9
GAMG:  Solving for p, Initial residual = 0.0163528, Final residual = 0.000122501, No Iterations 4
time step continuity errors : sum local = 0.000190379, global = -3.54303e-06, cumulative = -0.000246081
smoothSolver:  Solving for omega, Initial residual = 0.000229945, Final residual = 2.0883e-05, No Iterations 3
smoothSolver:  Solving for k, Initial residual = 0.00360524, Final residual = 0.000188306, No Iterations 4
ExecutionTime = 22.56 s  ClockTime = 23 s

forceCoeffs forceCoeffs1 write:
    Cm    = 0.160133
    Cd    = 0.399585
    Cl    = 0.0715289
    Cl(f) = 0.195897
    Cl(r) = -0.124368

Time = 53

smoothSolver:  Solving for Ux, Initial residual = 0.0018703, Final residual = 0.000147167, No Iterations 10
smoothSolver:  Solving for Uy, Initial residual = 0.037524, Final residual = 0.00346774, No Iterations 9
smoothSolver:  Solving for Uz, Initial residual = 0.0318536, Final residual = 0.00293462, No Iterations 9
GAMG:  Solving for p, Initial residual = 0.0160645, Final residual = 0.000121702, No Iterations 4
time step continuity errors : sum local = 0.000188603, global = -2.87484e-06, cumulative = -0.000248955
smoothSolver:  Solving for omega, Initial residual = 0.000225356, Final residual = 2.04013e-05, No Iterations 3
smoothSolver:  Solving for k, Initial residual = 0.00353824, Final residual = 0.000185091, No Iterations 4
ExecutionTime = 22.96 s  ClockTime = 23 s

forceCoeffs forceCoeffs1 write:
    Cm    = 0.159952
    Cd    = 0.401017
    Cl    = 0.0731603
    Cl(f) = 0.196532
    Cl(r) = -0.123372

Time = 54

smoothSolver:  Solving for Ux, Initial residual = 0.00183717, Final residual = 0.000144583, No Iterations 10
smoothSolver:  Solving for Uy, Initial residual = 0.0369827, Final residual = 0.00344093, No Iterations 9
smoothSolver:  Solving for Uz, Initial residual = 0.0319285, Final residual = 0.00295063, No Iterations 9
GAMG:  Solving for p, Initial residual = 0.0158801, Final residual = 0.000122453, No Iterations 4
time step continuity errors : sum local = 0.000189173, global = -1.71646e-06, cumulative = -0.000250672
smoothSolver:  Solving for omega, Initial residual = 0.000221446, Final residual = 1.99579e-05, No Iterations 3
smoothSolver:  Solving for k, Initial residual = 0.00347908, Final residual = 0.00018128, No Iterations 4
ExecutionTime = 23.38 s  ClockTime = 24 s

forceCoeffs forceCoeffs1 write:
    Cm    = 0.15964
    Cd    = 0.40256
    Cl    = 0.075301
    Cl(f) = 0.197291
    Cl(r) = -0.12199

Time = 55

smoothSolver:  Solving for Ux, Initial residual = 0.00180988, Final residual = 0.000141975, No Iterations 10
smoothSolver:  Solving for Uy, Initial residual = 0.0367703, Final residual = 0.00343519, No Iterations 9
smoothSolver:  Solving for Uz, Initial residual = 0.0319109, Final residual = 0.00296789, No Iterations 9
GAMG:  Solving for p, Initial residual = 0.0156599, Final residual = 0.000122115, No Iterations 4
time step continuity errors : sum local = 0.000187973, global = -4.4063e-07, cumulative = -0.000251112
smoothSolver:  Solving for omega, Initial residual = 0.000216834, Final residual = 1.95229e-05, No Iterations 3
smoothSolver:  Solving for k, Initial residual = 0.00342419, Final residual = 0.000178273, No Iterations 4
ExecutionTime = 23.8 s  ClockTime = 24 s

forceCoeffs forceCoeffs1 write:
    Cm    = 0.159203
    Cd    = 0.40407
    Cl    = 0.0777094
    Cl(f) = 0.198058
    Cl(r) = -0.120349

Time = 56

smoothSolver:  Solving for Ux, Initial residual = 0.00178357, Final residual = 0.000177384, No Iterations 9
smoothSolver:  Solving for Uy, Initial residual = 0.0365904, Final residual = 0.00341816, No Iterations 9
smoothSolver:  Solving for Uz, Initial residual = 0.0317895, Final residual = 0.00296311, No Iterations 9
GAMG:  Solving for p, Initial residual = 0.01537, Final residual = 0.000121445, No Iterations 4
time step continuity errors : sum local = 0.000186317, global = 4.03558e-07, cumulative = -0.000250709
smoothSolver:  Solving for omega, Initial residual = 0.0002128, Final residual = 1.91328e-05, No Iterations 3
smoothSolver:  Solving for k, Initial residual = 0.00337756, Final residual = 0.000175512, No Iterations 4
ExecutionTime = 24.22 s  ClockTime = 25 s

forceCoeffs forceCoeffs1 write:
    Cm    = 0.158734
    Cd    = 0.405137
    Cl    = 0.0796956
    Cl(f) = 0.198581
    Cl(r) = -0.118886

Time = 57

smoothSolver:  Solving for Ux, Initial residual = 0.00175989, Final residual = 0.00017399, No Iterations 9
smoothSolver:  Solving for Uy, Initial residual = 0.0364063, Final residual = 0.00337318, No Iterations 9
smoothSolver:  Solving for Uz, Initial residual = 0.0315329, Final residual = 0.0029255, No Iterations 9
GAMG:  Solving for p, Initial residual = 0.0149913, Final residual = 0.000121667, No Iterations 4
time step continuity errors : sum local = 0.000186036, global = 5.94024e-07, cumulative = -0.000250115
smoothSolver:  Solving for omega, Initial residual = 0.000209143, Final residual = 1.8758e-05, No Iterations 3
smoothSolver:  Solving for k, Initial residual = 0.00334142, Final residual = 0.000172771, No Iterations 4
ExecutionTime = 24.65 s  ClockTime = 25 s

forceCoeffs forceCoeffs1 write:
    Cm    = 0.158336
    Cd    = 0.405607
    Cl    = 0.0808824
    Cl(f) = 0.198777
    Cl(r) = -0.117895

Time = 58

smoothSolver:  Solving for Ux, Initial residual = 0.00172797, Final residual = 0.000170242, No Iterations 9
smoothSolver:  Solving for Uy, Initial residual = 0.0363902, Final residual = 0.00333648, No Iterations 9
smoothSolver:  Solving for Uz, Initial residual = 0.0312389, Final residual = 0.00287782, No Iterations 9
GAMG:  Solving for p, Initial residual = 0.0146663, Final residual = 0.000124011, No Iterations 4
time step continuity errors : sum local = 0.000189059, global = 5.20584e-07, cumulative = -0.000249594
smoothSolver:  Solving for omega, Initial residual = 0.000206412, Final residual = 1.84594e-05, No Iterations 3
smoothSolver:  Solving for k, Initial residual = 0.00330374, Final residual = 0.000170504, No Iterations 4
ExecutionTime = 25.05 s  ClockTime = 26 s

forceCoeffs forceCoeffs1 write:
    Cm    = 0.158349
    Cd    = 0.405618
    Cl    = 0.0809731
    Cl(f) = 0.198836
    Cl(r) = -0.117863

Time = 59

smoothSolver:  Solving for Ux, Initial residual = 0.00169581, Final residual = 0.000166964, No Iterations 9
smoothSolver:  Solving for Uy, Initial residual = 0.0362515, Final residual = 0.00329795, No Iterations 9
smoothSolver:  Solving for Uz, Initial residual = 0.0308692, Final residual = 0.00281503, No Iterations 9
GAMG:  Solving for p, Initial residual = 0.0144042, Final residual = 0.00012523, No Iterations 4
time step continuity errors : sum local = 0.000190349, global = 5.0067e-07, cumulative = -0.000249094
smoothSolver:  Solving for omega, Initial residual = 0.000204511, Final residual = 1.82733e-05, No Iterations 3
smoothSolver:  Solving for k, Initial residual = 0.00326971, Final residual = 0.000168499, No Iterations 4
ExecutionTime = 25.44 s  ClockTime = 26 s

forceCoeffs forceCoeffs1 write:
    Cm    = 0.158761
    Cd    = 0.405456
    Cl    = 0.0802784
    Cl(f) = 0.1989
    Cl(r) = -0.118622

Time = 60

smoothSolver:  Solving for Ux, Initial residual = 0.00166483, Final residual = 0.000165027, No Iterations 9
smoothSolver:  Solving for Uy, Initial residual = 0.0359277, Final residual = 0.00326452, No Iterations 9
smoothSolver:  Solving for Uz, Initial residual = 0.0305117, Final residual = 0.00276415, No Iterations 9
GAMG:  Solving for p, Initial residual = 0.0143242, Final residual = 0.000123026, No Iterations 4
time step continuity errors : sum local = 0.000186507, global = 8.55438e-07, cumulative = -0.000248238
smoothSolver:  Solving for omega, Initial residual = 0.000203449, Final residual = 1.80618e-05, No Iterations 3
smoothSolver:  Solving for k, Initial residual = 0.00323286, Final residual = 0.000165522, No Iterations 4
ExecutionTime = 25.85 s  ClockTime = 26 s

forceCoeffs forceCoeffs1 write:
    Cm    = 0.159307
    Cd    = 0.405278
    Cl    = 0.0793511
    Cl(f) = 0.198983
    Cl(r) = -0.119632

Time = 61

smoothSolver:  Solving for Ux, Initial residual = 0.00164274, Final residual = 0.00016423, No Iterations 9
smoothSolver:  Solving for Uy, Initial residual = 0.0354388, Final residual = 0.00325268, No Iterations 9
smoothSolver:  Solving for Uz, Initial residual = 0.0301387, Final residual = 0.0027439, No Iterations 9
GAMG:  Solving for p, Initial residual = 0.0142857, Final residual = 0.000117234, No Iterations 4
time step continuity errors : sum local = 0.000177275, global = 1.87617e-06, cumulative = -0.000246362
smoothSolver:  Solving for omega, Initial residual = 0.000202088, Final residual = 1.7866e-05, No Iterations 3
smoothSolver:  Solving for k, Initial residual = 0.00319413, Final residual = 0.000161337, No Iterations 4
ExecutionTime = 26.26 s  ClockTime = 27 s

forceCoeffs forceCoeffs1 write:
    Cm    = 0.159612
    Cd    = 0.40502
    Cl    = 0.078534
    Cl(f) = 0.198879
    Cl(r) = -0.120345

Time = 62

smoothSolver:  Solving for Ux, Initial residual = 0.00162574, Final residual = 0.000128678, No Iterations 10
smoothSolver:  Solving for Uy, Initial residual = 0.0349655, Final residual = 0.00323297, No Iterations 9
smoothSolver:  Solving for Uz, Initial residual = 0.0297668, Final residual = 0.00274567, No Iterations 9
GAMG:  Solving for p, Initial residual = 0.0141692, Final residual = 0.000114451, No Iterations 4
time step continuity errors : sum local = 0.000172755, global = 3.90341e-06, cumulative = -0.000242459
smoothSolver:  Solving for omega, Initial residual = 0.00020107, Final residual = 1.7672e-05, No Iterations 3
smoothSolver:  Solving for k, Initial residual = 0.00315009, Final residual = 0.000157302, No Iterations 4
ExecutionTime = 26.66 s  ClockTime = 27 s

forceCoeffs forceCoeffs1 write:
    Cm    = 0.159492
    Cd    = 0.404596
    Cl    = 0.0781464
    Cl(f) = 0.198565
    Cl(r) = -0.120419

Time = 63

smoothSolver:  Solving for Ux, Initial residual = 0.00160528, Final residual = 0.000127329, No Iterations 10
smoothSolver:  Solving for Uy, Initial residual = 0.0345707, Final residual = 0.00320098, No Iterations 9
smoothSolver:  Solving for Uz, Initial residual = 0.0296635, Final residual = 0.00276858, No Iterations 9
GAMG:  Solving for p, Initial residual = 0.0139255, Final residual = 0.000114425, No Iterations 4
time step continuity errors : sum local = 0.000172563, global = 5.41573e-06, cumulative = -0.000237043
smoothSolver:  Solving for omega, Initial residual = 0.000199629, Final residual = 1.74774e-05, No Iterations 3
smoothSolver:  Solving for k, Initial residual = 0.00310292, Final residual = 0.000154155, No Iterations 4
ExecutionTime = 27.07 s  ClockTime = 28 s

forceCoeffs forceCoeffs1 write:
    Cm    = 0.158869
    Cd    = 0.403979
    Cl    = 0.0783671
    Cl(f) = 0.198053
    Cl(r) = -0.119686

Time = 64

smoothSolver:  Solving for Ux, Initial residual = 0.0015844, Final residual = 0.000125352, No Iterations 10
smoothSolver:  Solving for Uy, Initial residual = 0.0341088, Final residual = 0.00314274, No Iterations 9
smoothSolver:  Solving for Uz, Initial residual = 0.0296006, Final residual = 0.00277216, No Iterations 9
GAMG:  Solving for p, Initial residual = 0.0136456, Final residual = 0.000113548, No Iterations 4
time step continuity errors : sum local = 0.000171384, global = 6.19857e-06, cumulative = -0.000230844
smoothSolver:  Solving for omega, Initial residual = 0.000198226, Final residual = 1.72785e-05, No Iterations 3
bounding omega, min: -2.64696 max: 194921 average: 929.623
smoothSolver:  Solving for k, Initial residual = 0.00305572, Final residual = 0.000151639, No Iterations 4
ExecutionTime = 27.48 s  ClockTime = 28 s

forceCoeffs forceCoeffs1 write:
    Cm    = 0.157885
    Cd    = 0.40312
    Cl    = 0.0789766
    Cl(f) = 0.197373
    Cl(r) = -0.118397

Time = 65

smoothSolver:  Solving for Ux, Initial residual = 0.00156089, Final residual = 0.000122594, No Iterations 10
smoothSolver:  Solving for Uy, Initial residual = 0.0335883, Final residual = 0.00307452, No Iterations 9
smoothSolver:  Solving for Uz, Initial residual = 0.0294473, Final residual = 0.00274374, No Iterations 9
GAMG:  Solving for p, Initial residual = 0.0133701, Final residual = 0.000110518, No Iterations 4
time step continuity errors : sum local = 0.000167108, global = 6.25607e-06, cumulative = -0.000224588
smoothSolver:  Solving for omega, Initial residual = 0.000195885, Final residual = 1.70386e-05, No Iterations 3
smoothSolver:  Solving for k, Initial residual = 0.00299923, Final residual = 0.000148974, No Iterations 4
ExecutionTime = 27.9 s  ClockTime = 28 s

forceCoeffs forceCoeffs1 write:
    Cm    = 0.156632
    Cd    = 0.402054
    Cl    = 0.0795884
    Cl(f) = 0.196426
    Cl(r) = -0.116838

Time = 66

smoothSolver:  Solving for Ux, Initial residual = 0.00153651, Final residual = 0.000152681, No Iterations 9
smoothSolver:  Solving for Uy, Initial residual = 0.0330724, Final residual = 0.00301413, No Iterations 9
smoothSolver:  Solving for Uz, Initial residual = 0.0291481, Final residual = 0.00269458, No Iterations 9
GAMG:  Solving for p, Initial residual = 0.0131826, Final residual = 0.000107642, No Iterations 4
time step continuity errors : sum local = 0.000163128, global = 5.71105e-06, cumulative = -0.000218877
smoothSolver:  Solving for omega, Initial residual = 0.000193187, Final residual = 1.67978e-05, No Iterations 3
smoothSolver:  Solving for k, Initial residual = 0.00293875, Final residual = 0.000145946, No Iterations 4
ExecutionTime = 28.3 s  ClockTime = 29 s

forceCoeffs forceCoeffs1 write:
    Cm    = 0.15537
    Cd    = 0.401104
    Cl    = 0.0799131
    Cl(f) = 0.195327
    Cl(r) = -0.115413

Time = 67

smoothSolver:  Solving for Ux, Initial residual = 0.00151523, Final residual = 0.000149755, No Iterations 9
smoothSolver:  Solving for Uy, Initial residual = 0.032593, Final residual = 0.00295684, No Iterations 9
smoothSolver:  Solving for Uz, Initial residual = 0.0286504, Final residual = 0.00263156, No Iterations 9
GAMG:  Solving for p, Initial residual = 0.0130129, Final residual = 0.000106634, No Iterations 4
time step continuity errors : sum local = 0.000161914, global = 5.33114e-06, cumulative = -0.000213546
smoothSolver:  Solving for omega, Initial residual = 0.00019162, Final residual = 1.66138e-05, No Iterations 3
bounding omega, min: -51.2918 max: 194921 average: 931.792
smoothSolver:  Solving for k, Initial residual = 0.00288613, Final residual = 0.000143038, No Iterations 4
ExecutionTime = 28.71 s  ClockTime = 29 s

forceCoeffs forceCoeffs1 write:
    Cm    = 0.154202
    Cd    = 0.400429
    Cl    = 0.0798326
    Cl(f) = 0.194119
    Cl(r) = -0.114286

Time = 68

smoothSolver:  Solving for Ux, Initial residual = 0.0014957, Final residual = 0.000146953, No Iterations 9
smoothSolver:  Solving for Uy, Initial residual = 0.032313, Final residual = 0.00292713, No Iterations 9
smoothSolver:  Solving for Uz, Initial residual = 0.0282548, Final residual = 0.00258334, No Iterations 9
GAMG:  Solving for p, Initial residual = 0.0128497, Final residual = 0.000106269, No Iterations 4
time step continuity errors : sum local = 0.000161671, global = 5.20754e-06, cumulative = -0.000208339
smoothSolver:  Solving for omega, Initial residual = 0.000189587, Final residual = 1.63672e-05, No Iterations 3
bounding omega, min: -10.616 max: 194921 average: 932.292
smoothSolver:  Solving for k, Initial residual = 0.00283164, Final residual = 0.000139917, No Iterations 4
ExecutionTime = 29.14 s  ClockTime = 30 s

forceCoeffs forceCoeffs1 write:
    Cm    = 0.153345
    Cd    = 0.400114
    Cl    = 0.0796925
    Cl(f) = 0.193191
    Cl(r) = -0.113498

Time = 69

smoothSolver:  Solving for Ux, Initial residual = 0.00147773, Final residual = 0.000145041, No Iterations 9
smoothSolver:  Solving for Uy, Initial residual = 0.0320908, Final residual = 0.00291464, No Iterations 9
smoothSolver:  Solving for Uz, Initial residual = 0.0280518, Final residual = 0.00256138, No Iterations 9
GAMG:  Solving for p, Initial residual = 0.0126706, Final residual = 0.000106177, No Iterations 4
time step continuity errors : sum local = 0.000161791, global = 5.39031e-06, cumulative = -0.000202948
smoothSolver:  Solving for omega, Initial residual = 0.000187283, Final residual = 1.60918e-05, No Iterations 3
bounding omega, min: -35.4344 max: 194921 average: 932.604
smoothSolver:  Solving for k, Initial residual = 0.00277844, Final residual = 0.000136486, No Iterations 4
ExecutionTime = 29.54 s  ClockTime = 30 s

forceCoeffs forceCoeffs1 write:
    Cm    = 0.152825
    Cd    = 0.400086
    Cl    = 0.0795076
    Cl(f) = 0.192579
    Cl(r) = -0.113071

Time = 70

smoothSolver:  Solving for Ux, Initial residual = 0.00146176, Final residual = 0.000144023, No Iterations 9
smoothSolver:  Solving for Uy, Initial residual = 0.031828, Final residual = 0.00291033, No Iterations 9
smoothSolver:  Solving for Uz, Initial residual = 0.0279853, Final residual = 0.00255561, No Iterations 9
GAMG:  Solving for p, Initial residual = 0.0124497, Final residual = 0.000106582, No Iterations 4
time step continuity errors : sum local = 0.000162596, global = 5.76501e-06, cumulative = -0.000197183
smoothSolver:  Solving for omega, Initial residual = 0.000184053, Final residual = 1.5767e-05, No Iterations 3
smoothSolver:  Solving for k, Initial residual = 0.00273088, Final residual = 0.000132922, No Iterations 4
ExecutionTime = 29.96 s  ClockTime = 30 s

forceCoeffs forceCoeffs1 write:
    Cm    = 0.152746
    Cd    = 0.400416
    Cl    = 0.0792252
    Cl(f) = 0.192358
    Cl(r) = -0.113133

Time = 71

smoothSolver:  Solving for Ux, Initial residual = 0.00144586, Final residual = 0.000143167, No Iterations 9
smoothSolver:  Solving for Uy, Initial residual = 0.0315345, Final residual = 0.00289133, No Iterations 9
smoothSolver:  Solving for Uz, Initial residual = 0.0279443, Final residual = 0.00256715, No Iterations 9
GAMG:  Solving for p, Initial residual = 0.0122341, Final residual = 0.000106353, No Iterations 4
time step continuity errors : sum local = 0.000162305, global = 5.93183e-06, cumulative = -0.000191251
smoothSolver:  Solving for omega, Initial residual = 0.000180479, Final residual = 1.5475e-05, No Iterations 3
smoothSolver:  Solving for k, Initial residual = 0.00268316, Final residual = 0.000130279, No Iterations 4
ExecutionTime = 30.37 s  ClockTime = 31 s

forceCoeffs forceCoeffs1 write:
    Cm    = 0.152989
    Cd    = 0.401031
    Cl    = 0.0787844
    Cl(f) = 0.192381
    Cl(r) = -0.113597

Time = 72

smoothSolver:  Solving for Ux, Initial residual = 0.00142958, Final residual = 0.000142308, No Iterations 9
smoothSolver:  Solving for Uy, Initial residual = 0.0311651, Final residual = 0.00285719, No Iterations 9
smoothSolver:  Solving for Uz, Initial residual = 0.0278623, Final residual = 0.00257651, No Iterations 9
GAMG:  Solving for p, Initial residual = 0.0120174, Final residual = 0.000104476, No Iterations 4
time step continuity errors : sum local = 0.000159388, global = 5.51732e-06, cumulative = -0.000185734
smoothSolver:  Solving for omega, Initial residual = 0.00017711, Final residual = 1.51665e-05, No Iterations 3
smoothSolver:  Solving for k, Initial residual = 0.00263519, Final residual = 0.000128525, No Iterations 4
ExecutionTime = 30.79 s  ClockTime = 31 s

forceCoeffs forceCoeffs1 write:
    Cm    = 0.153449
    Cd    = 0.401831
    Cl    = 0.0783481
    Cl(f) = 0.192623
    Cl(r) = -0.114275

Time = 73

smoothSolver:  Solving for Ux, Initial residual = 0.00141, Final residual = 0.000140824, No Iterations 9
smoothSolver:  Solving for Uy, Initial residual = 0.0307077, Final residual = 0.00280901, No Iterations 9
smoothSolver:  Solving for Uz, Initial residual = 0.0276002, Final residual = 0.00256303, No Iterations 9
GAMG:  Solving for p, Initial residual = 0.0118172, Final residual = 0.000102087, No Iterations 4
time step continuity errors : sum local = 0.000155566, global = 4.50956e-06, cumulative = -0.000181225
smoothSolver:  Solving for omega, Initial residual = 0.000173373, Final residual = 1.4865e-05, No Iterations 3
smoothSolver:  Solving for k, Initial residual = 0.00257755, Final residual = 0.000126951, No Iterations 4
ExecutionTime = 31.21 s  ClockTime = 32 s

forceCoeffs forceCoeffs1 write:
    Cm    = 0.153882
    Cd    = 0.402516
    Cl    = 0.0779532
    Cl(f) = 0.192859
    Cl(r) = -0.114906

Time = 74

smoothSolver:  Solving for Ux, Initial residual = 0.00138567, Final residual = 0.000137916, No Iterations 9
smoothSolver:  Solving for Uy, Initial residual = 0.0302017, Final residual = 0.00274164, No Iterations 9
smoothSolver:  Solving for Uz, Initial residual = 0.0271638, Final residual = 0.00252067, No Iterations 9
GAMG:  Solving for p, Initial residual = 0.0116289, Final residual = 9.92807e-05, No Iterations 4
time step continuity errors : sum local = 0.000151058, global = 3.05103e-06, cumulative = -0.000178173
smoothSolver:  Solving for omega, Initial residual = 0.000170479, Final residual = 1.45727e-05, No Iterations 3
smoothSolver:  Solving for k, Initial residual = 0.00252123, Final residual = 0.000124831, No Iterations 4
ExecutionTime = 31.61 s  ClockTime = 32 s

forceCoeffs forceCoeffs1 write:
    Cm    = 0.154162
    Cd    = 0.402857
    Cl    = 0.0776763
    Cl(f) = 0.193
    Cl(r) = -0.115324

Time = 75

smoothSolver:  Solving for Ux, Initial residual = 0.00135621, Final residual = 0.000133875, No Iterations 9
smoothSolver:  Solving for Uy, Initial residual = 0.0296113, Final residual = 0.00266707, No Iterations 9
smoothSolver:  Solving for Uz, Initial residual = 0.0266286, Final residual = 0.0024656, No Iterations 9
GAMG:  Solving for p, Initial residual = 0.0114511, Final residual = 9.58607e-05, No Iterations 4
time step continuity errors : sum local = 0.000145617, global = 1.63497e-06, cumulative = -0.000176539
smoothSolver:  Solving for omega, Initial residual = 0.000167455, Final residual = 1.43297e-05, No Iterations 3
smoothSolver:  Solving for k, Initial residual = 0.00246009, Final residual = 0.00012203, No Iterations 4
ExecutionTime = 32.01 s  ClockTime = 33 s

forceCoeffs forceCoeffs1 write:
    Cm    = 0.15414
    Cd    = 0.402632
    Cl    = 0.0773626
    Cl(f) = 0.192822
    Cl(r) = -0.115459

Time = 76

smoothSolver:  Solving for Ux, Initial residual = 0.00132289, Final residual = 0.000129377, No Iterations 9
smoothSolver:  Solving for Uy, Initial residual = 0.0289858, Final residual = 0.00259537, No Iterations 9
smoothSolver:  Solving for Uz, Initial residual = 0.0260666, Final residual = 0.00240732, No Iterations 9
GAMG:  Solving for p, Initial residual = 0.0112627, Final residual = 9.10798e-05, No Iterations 4
time step continuity errors : sum local = 0.000138163, global = 3.79549e-07, cumulative = -0.000176159
smoothSolver:  Solving for omega, Initial residual = 0.000165013, Final residual = 1.41239e-05, No Iterations 3
smoothSolver:  Solving for k, Initial residual = 0.00239762, Final residual = 0.00011938, No Iterations 4
ExecutionTime = 32.4 s  ClockTime = 33 s

forceCoeffs forceCoeffs1 write:
    Cm    = 0.153899
    Cd    = 0.40195
    Cl    = 0.0769751
    Cl(f) = 0.192386
    Cl(r) = -0.115411

Time = 77

smoothSolver:  Solving for Ux, Initial residual = 0.00129094, Final residual = 0.000125718, No Iterations 9
smoothSolver:  Solving for Uy, Initial residual = 0.0284511, Final residual = 0.00254235, No Iterations 9
smoothSolver:  Solving for Uz, Initial residual = 0.025543, Final residual = 0.00235449, No Iterations 9
GAMG:  Solving for p, Initial residual = 0.0110922, Final residual = 8.61291e-05, No Iterations 4
time step continuity errors : sum local = 0.000130521, global = -6.97081e-07, cumulative = -0.000176856
smoothSolver:  Solving for omega, Initial residual = 0.000163313, Final residual = 1.3939e-05, No Iterations 3
smoothSolver:  Solving for k, Initial residual = 0.00234259, Final residual = 0.000117052, No Iterations 4
ExecutionTime = 32.8 s  ClockTime = 33 s

forceCoeffs forceCoeffs1 write:
    Cm    = 0.153431
    Cd    = 0.400841
    Cl    = 0.0764912
    Cl(f) = 0.191676
    Cl(r) = -0.115185

Time = 78

smoothSolver:  Solving for Ux, Initial residual = 0.00126225, Final residual = 0.00012322, No Iterations 9
smoothSolver:  Solving for Uy, Initial residual = 0.0280007, Final residual = 0.0025117, No Iterations 9
smoothSolver:  Solving for Uz, Initial residual = 0.0250612, Final residual = 0.00230466, No Iterations 9
GAMG:  Solving for p, Initial residual = 0.0109488, Final residual = 8.37252e-05, No Iterations 4
time step continuity errors : sum local = 0.000126842, global = -1.70982e-06, cumulative = -0.000178566
smoothSolver:  Solving for omega, Initial residual = 0.000161144, Final residual = 1.36965e-05, No Iterations 3
smoothSolver:  Solving for k, Initial residual = 0.00229938, Final residual = 0.000115251, No Iterations 4
ExecutionTime = 33.18 s  ClockTime = 34 s

forceCoeffs forceCoeffs1 write:
    Cm    = 0.152917
    Cd    = 0.399685
    Cl    = 0.0760638
    Cl(f) = 0.190949
    Cl(r) = -0.114886

Time = 79

smoothSolver:  Solving for Ux, Initial residual = 0.00123529, Final residual = 0.000121498, No Iterations 9
smoothSolver:  Solving for Uy, Initial residual = 0.0276088, Final residual = 0.0024869, No Iterations 9
smoothSolver:  Solving for Uz, Initial residual = 0.0246468, Final residual = 0.00225424, No Iterations 9
GAMG:  Solving for p, Initial residual = 0.0108034, Final residual = 8.40563e-05, No Iterations 4
time step continuity errors : sum local = 0.000127357, global = -2.83236e-06, cumulative = -0.000181398
smoothSolver:  Solving for omega, Initial residual = 0.000159286, Final residual = 1.34801e-05, No Iterations 3
smoothSolver:  Solving for k, Initial residual = 0.00227203, Final residual = 0.00011372, No Iterations 4
ExecutionTime = 33.58 s  ClockTime = 34 s

forceCoeffs forceCoeffs1 write:
    Cm    = 0.152451
    Cd    = 0.398755
    Cl    = 0.0758776
    Cl(f) = 0.19039
    Cl(r) = -0.114512

Time = 80

smoothSolver:  Solving for Ux, Initial residual = 0.00121295, Final residual = 0.000120163, No Iterations 9
smoothSolver:  Solving for Uy, Initial residual = 0.0273176, Final residual = 0.00246641, No Iterations 9
smoothSolver:  Solving for Uz, Initial residual = 0.0243602, Final residual = 0.00220473, No Iterations 9
GAMG:  Solving for p, Initial residual = 0.0106859, Final residual = 8.56446e-05, No Iterations 4
time step continuity errors : sum local = 0.000129791, global = -4.1441e-06, cumulative = -0.000185542
smoothSolver:  Solving for omega, Initial residual = 0.000156845, Final residual = 1.32704e-05, No Iterations 3
smoothSolver:  Solving for k, Initial residual = 0.00224046, Final residual = 0.000112596, No Iterations 4
ExecutionTime = 33.99 s  ClockTime = 35 s

forceCoeffs forceCoeffs1 write:
    Cm    = 0.152142
    Cd    = 0.398281
    Cl    = 0.076169
    Cl(f) = 0.190227
    Cl(r) = -0.114058

Time = 81

smoothSolver:  Solving for Ux, Initial residual = 0.00119478, Final residual = 0.00011885, No Iterations 9
smoothSolver:  Solving for Uy, Initial residual = 0.0271056, Final residual = 0.00244757, No Iterations 9
smoothSolver:  Solving for Uz, Initial residual = 0.0241051, Final residual = 0.00216417, No Iterations 9
GAMG:  Solving for p, Initial residual = 0.0106688, Final residual = 8.61429e-05, No Iterations 4
time step continuity errors : sum local = 0.000130506, global = -5.19247e-06, cumulative = -0.000190735
smoothSolver:  Solving for omega, Initial residual = 0.000154792, Final residual = 1.3088e-05, No Iterations 3
smoothSolver:  Solving for k, Initial residual = 0.0022165, Final residual = 0.000111382, No Iterations 4
ExecutionTime = 34.4 s  ClockTime = 35 s

forceCoeffs forceCoeffs1 write:
    Cm    = 0.151962
    Cd    = 0.398351
    Cl    = 0.0767381
    Cl(f) = 0.190331
    Cl(r) = -0.113593

Time = 82

smoothSolver:  Solving for Ux, Initial residual = 0.00118123, Final residual = 0.000118103, No Iterations 9
smoothSolver:  Solving for Uy, Initial residual = 0.0269171, Final residual = 0.0024417, No Iterations 9
smoothSolver:  Solving for Uz, Initial residual = 0.023817, Final residual = 0.0021323, No Iterations 9
GAMG:  Solving for p, Initial residual = 0.0106673, Final residual = 8.452e-05, No Iterations 4
time step continuity errors : sum local = 0.000127919, global = -5.15237e-06, cumulative = -0.000195887
smoothSolver:  Solving for omega, Initial residual = 0.000152589, Final residual = 1.28943e-05, No Iterations 3
smoothSolver:  Solving for k, Initial residual = 0.00219023, Final residual = 0.000110233, No Iterations 4
ExecutionTime = 34.79 s  ClockTime = 35 s

forceCoeffs forceCoeffs1 write:
    Cm    = 0.152074
    Cd    = 0.399076
    Cl    = 0.0774887
    Cl(f) = 0.190818
    Cl(r) = -0.11333

Time = 83

smoothSolver:  Solving for Ux, Initial residual = 0.00117414, Final residual = 9.2596e-05, No Iterations 10
smoothSolver:  Solving for Uy, Initial residual = 0.0266907, Final residual = 0.00244142, No Iterations 9
smoothSolver:  Solving for Uz, Initial residual = 0.0235672, Final residual = 0.00211354, No Iterations 9
GAMG:  Solving for p, Initial residual = 0.0106065, Final residual = 8.18526e-05, No Iterations 4
time step continuity errors : sum local = 0.000123685, global = -3.85124e-06, cumulative = -0.000199738
smoothSolver:  Solving for omega, Initial residual = 0.000151786, Final residual = 1.27931e-05, No Iterations 3
smoothSolver:  Solving for k, Initial residual = 0.00217355, Final residual = 0.000109291, No Iterations 4
ExecutionTime = 35.19 s  ClockTime = 36 s

forceCoeffs forceCoeffs1 write:
    Cm    = 0.152535
    Cd    = 0.400359
    Cl    = 0.0782207
    Cl(f) = 0.191645
    Cl(r) = -0.113424

Time = 84

smoothSolver:  Solving for Ux, Initial residual = 0.00116033, Final residual = 9.14559e-05, No Iterations 10
smoothSolver:  Solving for Uy, Initial residual = 0.0264793, Final residual = 0.00244108, No Iterations 9
smoothSolver:  Solving for Uz, Initial residual = 0.0233705, Final residual = 0.00211405, No Iterations 9
GAMG:  Solving for p, Initial residual = 0.0105087, Final residual = 8.14797e-05, No Iterations 4
time step continuity errors : sum local = 0.000122887, global = -1.86869e-06, cumulative = -0.000201607
smoothSolver:  Solving for omega, Initial residual = 0.000150444, Final residual = 1.26744e-05, No Iterations 3
smoothSolver:  Solving for k, Initial residual = 0.00215346, Final residual = 0.000108637, No Iterations 4
ExecutionTime = 35.6 s  ClockTime = 36 s

forceCoeffs forceCoeffs1 write:
    Cm    = 0.153322
    Cd    = 0.401971
    Cl    = 0.0788049
    Cl(f) = 0.192724
    Cl(r) = -0.11392

Time = 85

smoothSolver:  Solving for Ux, Initial residual = 0.00114389, Final residual = 8.99895e-05, No Iterations 10
smoothSolver:  Solving for Uy, Initial residual = 0.0261567, Final residual = 0.00241432, No Iterations 9
smoothSolver:  Solving for Uz, Initial residual = 0.0232148, Final residual = 0.00211212, No Iterations 9
GAMG:  Solving for p, Initial residual = 0.010347, Final residual = 8.37821e-05, No Iterations 4
time step continuity errors : sum local = 0.000126145, global = 2.2017e-07, cumulative = -0.000201387
smoothSolver:  Solving for omega, Initial residual = 0.00014921, Final residual = 1.25802e-05, No Iterations 3
smoothSolver:  Solving for k, Initial residual = 0.0021326, Final residual = 0.000108507, No Iterations 4
ExecutionTime = 36.02 s  ClockTime = 37 s

forceCoeffs forceCoeffs1 write:
    Cm    = 0.154271
    Cd    = 0.403618
    Cl    = 0.079118
    Cl(f) = 0.19383
    Cl(r) = -0.114712

Time = 86

smoothSolver:  Solving for Ux, Initial residual = 0.00112899, Final residual = 0.000112571, No Iterations 9
smoothSolver:  Solving for Uy, Initial residual = 0.0258868, Final residual = 0.00237113, No Iterations 9
smoothSolver:  Solving for Uz, Initial residual = 0.023182, Final residual = 0.00209222, No Iterations 9
GAMG:  Solving for p, Initial residual = 0.0101664, Final residual = 8.62336e-05, No Iterations 4
time step continuity errors : sum local = 0.000129691, global = 1.46577e-06, cumulative = -0.000199921
smoothSolver:  Solving for omega, Initial residual = 0.000147904, Final residual = 1.25105e-05, No Iterations 3
smoothSolver:  Solving for k, Initial residual = 0.0021143, Final residual = 0.000108348, No Iterations 4
ExecutionTime = 36.44 s  ClockTime = 37 s

forceCoeffs forceCoeffs1 write:
    Cm    = 0.155261
    Cd    = 0.405076
    Cl    = 0.0793349
    Cl(f) = 0.194928
    Cl(r) = -0.115593

Time = 87

smoothSolver:  Solving for Ux, Initial residual = 0.00112104, Final residual = 0.00011056, No Iterations 9
smoothSolver:  Solving for Uy, Initial residual = 0.0256398, Final residual = 0.00230778, No Iterations 9
smoothSolver:  Solving for Uz, Initial residual = 0.0231223, Final residual = 0.00204904, No Iterations 9
GAMG:  Solving for p, Initial residual = 0.0100272, Final residual = 8.82756e-05, No Iterations 4
time step continuity errors : sum local = 0.000132708, global = 2.11509e-06, cumulative = -0.000197806
smoothSolver:  Solving for omega, Initial residual = 0.000146686, Final residual = 1.23999e-05, No Iterations 3
smoothSolver:  Solving for k, Initial residual = 0.00210083, Final residual = 0.000107442, No Iterations 4
ExecutionTime = 36.82 s  ClockTime = 37 s

forceCoeffs forceCoeffs1 write:
    Cm    = 0.15611
    Cd    = 0.406177
    Cl    = 0.0794454
    Cl(f) = 0.195833
    Cl(r) = -0.116388

Time = 88

smoothSolver:  Solving for Ux, Initial residual = 0.00111493, Final residual = 0.000108546, No Iterations 9
smoothSolver:  Solving for Uy, Initial residual = 0.0255309, Final residual = 0.00225192, No Iterations 9
smoothSolver:  Solving for Uz, Initial residual = 0.0230427, Final residual = 0.00200513, No Iterations 9
GAMG:  Solving for p, Initial residual = 0.00999013, Final residual = 8.90033e-05, No Iterations 4
time step continuity errors : sum local = 0.000133827, global = 2.25813e-06, cumulative = -0.000195548
smoothSolver:  Solving for omega, Initial residual = 0.000146062, Final residual = 1.22573e-05, No Iterations 3
smoothSolver:  Solving for k, Initial residual = 0.00209336, Final residual = 0.000105991, No Iterations 4
ExecutionTime = 37.19 s  ClockTime = 38 s

forceCoeffs forceCoeffs1 write:
    Cm    = 0.156854
    Cd    = 0.407027
    Cl    = 0.0795412
    Cl(f) = 0.196625
    Cl(r) = -0.117084

Time = 89

smoothSolver:  Solving for Ux, Initial residual = 0.00110602, Final residual = 0.000106808, No Iterations 9
smoothSolver:  Solving for Uy, Initial residual = 0.0254175, Final residual = 0.00220785, No Iterations 9
smoothSolver:  Solving for Uz, Initial residual = 0.0228888, Final residual = 0.00196886, No Iterations 9
GAMG:  Solving for p, Initial residual = 0.0100291, Final residual = 8.88883e-05, No Iterations 4
time step continuity errors : sum local = 0.000133691, global = 1.89339e-06, cumulative = -0.000193655
smoothSolver:  Solving for omega, Initial residual = 0.00014607, Final residual = 1.21312e-05, No Iterations 3
smoothSolver:  Solving for k, Initial residual = 0.00209073, Final residual = 0.000104743, No Iterations 4
ExecutionTime = 37.6 s  ClockTime = 38 s

forceCoeffs forceCoeffs1 write:
    Cm    = 0.157399
    Cd    = 0.407631
    Cl    = 0.0794969
    Cl(f) = 0.197148
    Cl(r) = -0.117651

Time = 90

smoothSolver:  Solving for Ux, Initial residual = 0.00109651, Final residual = 0.00010546, No Iterations 9
smoothSolver:  Solving for Uy, Initial residual = 0.0252804, Final residual = 0.00217715, No Iterations 9
smoothSolver:  Solving for Uz, Initial residual = 0.0225888, Final residual = 0.00194457, No Iterations 9
GAMG:  Solving for p, Initial residual = 0.0100466, Final residual = 8.70468e-05, No Iterations 4
time step continuity errors : sum local = 0.000130938, global = 1.12324e-06, cumulative = -0.000192531
smoothSolver:  Solving for omega, Initial residual = 0.000145282, Final residual = 1.2014e-05, No Iterations 3
smoothSolver:  Solving for k, Initial residual = 0.00208405, Final residual = 0.000103825, No Iterations 4
ExecutionTime = 37.98 s  ClockTime = 39 s

forceCoeffs forceCoeffs1 write:
    Cm    = 0.157778
    Cd    = 0.408097
    Cl    = 0.0794494
    Cl(f) = 0.197503
    Cl(r) = -0.118053

Time = 91

smoothSolver:  Solving for Ux, Initial residual = 0.0010853, Final residual = 0.000104347, No Iterations 9
smoothSolver:  Solving for Uy, Initial residual = 0.0250235, Final residual = 0.00215711, No Iterations 9
smoothSolver:  Solving for Uz, Initial residual = 0.0221378, Final residual = 0.0019164, No Iterations 9
GAMG:  Solving for p, Initial residual = 0.0100295, Final residual = 8.26865e-05, No Iterations 4
time step continuity errors : sum local = 0.000124353, global = -2.24955e-07, cumulative = -0.000192756
smoothSolver:  Solving for omega, Initial residual = 0.000145037, Final residual = 1.19119e-05, No Iterations 3
smoothSolver:  Solving for k, Initial residual = 0.00207275, Final residual = 0.000103201, No Iterations 4
ExecutionTime = 38.37 s  ClockTime = 39 s

forceCoeffs forceCoeffs1 write:
    Cm    = 0.157865
    Cd    = 0.408324
    Cl    = 0.0793294
    Cl(f) = 0.197529
    Cl(r) = -0.1182

Time = 92

smoothSolver:  Solving for Ux, Initial residual = 0.00106817, Final residual = 0.000103521, No Iterations 9
smoothSolver:  Solving for Uy, Initial residual = 0.0246053, Final residual = 0.00214291, No Iterations 9
smoothSolver:  Solving for Uz, Initial residual = 0.0215412, Final residual = 0.00187578, No Iterations 9
GAMG:  Solving for p, Initial residual = 0.00995197, Final residual = 7.90358e-05, No Iterations 4
time step continuity errors : sum local = 0.0001188, global = -1.60248e-06, cumulative = -0.000194359
smoothSolver:  Solving for omega, Initial residual = 0.000143751, Final residual = 1.1835e-05, No Iterations 3
smoothSolver:  Solving for k, Initial residual = 0.00205621, Final residual = 0.00010262, No Iterations 4
ExecutionTime = 38.74 s  ClockTime = 39 s

forceCoeffs forceCoeffs1 write:
    Cm    = 0.157738
    Cd    = 0.408428
    Cl    = 0.0792347
    Cl(f) = 0.197355
    Cl(r) = -0.118121

Time = 93

smoothSolver:  Solving for Ux, Initial residual = 0.0010512, Final residual = 0.000102518, No Iterations 9
smoothSolver:  Solving for Uy, Initial residual = 0.0240533, Final residual = 0.00211895, No Iterations 9
smoothSolver:  Solving for Uz, Initial residual = 0.0208555, Final residual = 0.00183189, No Iterations 9
GAMG:  Solving for p, Initial residual = 0.00982203, Final residual = 7.9928e-05, No Iterations 4
time step continuity errors : sum local = 0.000120027, global = -2.86332e-06, cumulative = -0.000197222
smoothSolver:  Solving for omega, Initial residual = 0.000142462, Final residual = 1.17948e-05, No Iterations 3
smoothSolver:  Solving for k, Initial residual = 0.00203643, Final residual = 0.000102053, No Iterations 4
ExecutionTime = 39.11 s  ClockTime = 40 s

forceCoeffs forceCoeffs1 write:
    Cm    = 0.15729
    Cd    = 0.408272
    Cl    = 0.0789479
    Cl(f) = 0.196763
    Cl(r) = -0.117816

Time = 94

smoothSolver:  Solving for Ux, Initial residual = 0.00103414, Final residual = 0.00010146, No Iterations 9
smoothSolver:  Solving for Uy, Initial residual = 0.0236099, Final residual = 0.00208274, No Iterations 9
smoothSolver:  Solving for Uz, Initial residual = 0.0203485, Final residual = 0.00179344, No Iterations 9
GAMG:  Solving for p, Initial residual = 0.00964101, Final residual = 8.14021e-05, No Iterations 4
time step continuity errors : sum local = 0.000122079, global = -3.84926e-06, cumulative = -0.000201071
smoothSolver:  Solving for omega, Initial residual = 0.00014102, Final residual = 1.16973e-05, No Iterations 3
smoothSolver:  Solving for k, Initial residual = 0.00201242, Final residual = 0.000101286, No Iterations 4
ExecutionTime = 39.48 s  ClockTime = 40 s

forceCoeffs forceCoeffs1 write:
    Cm    = 0.156712
    Cd    = 0.407982
    Cl    = 0.0786175
    Cl(f) = 0.19602
    Cl(r) = -0.117403

Time = 95

smoothSolver:  Solving for Ux, Initial residual = 0.0010193, Final residual = 9.98552e-05, No Iterations 9
smoothSolver:  Solving for Uy, Initial residual = 0.0233384, Final residual = 0.00203771, No Iterations 9
smoothSolver:  Solving for Uz, Initial residual = 0.0201339, Final residual = 0.00176614, No Iterations 9
GAMG:  Solving for p, Initial residual = 0.00944516, Final residual = 8.23144e-05, No Iterations 4
time step continuity errors : sum local = 0.000123278, global = -4.30601e-06, cumulative = -0.000205377
smoothSolver:  Solving for omega, Initial residual = 0.00013957, Final residual = 1.16036e-05, No Iterations 3
smoothSolver:  Solving for k, Initial residual = 0.00198172, Final residual = 0.00010052, No Iterations 4
ExecutionTime = 39.89 s  ClockTime = 40 s

forceCoeffs forceCoeffs1 write:
    Cm    = 0.156146
    Cd    = 0.407738
    Cl    = 0.0782199
    Cl(f) = 0.195256
    Cl(r) = -0.117036

Time = 96

smoothSolver:  Solving for Ux, Initial residual = 0.00100844, Final residual = 9.79468e-05, No Iterations 9
smoothSolver:  Solving for Uy, Initial residual = 0.0230738, Final residual = 0.00199453, No Iterations 9
smoothSolver:  Solving for Uz, Initial residual = 0.019966, Final residual = 0.00174398, No Iterations 9
GAMG:  Solving for p, Initial residual = 0.00925873, Final residual = 8.22292e-05, No Iterations 4
time step continuity errors : sum local = 0.000123031, global = -4.05567e-06, cumulative = -0.000209433
smoothSolver:  Solving for omega, Initial residual = 0.000137746, Final residual = 1.14705e-05, No Iterations 3
smoothSolver:  Solving for k, Initial residual = 0.00195351, Final residual = 9.96055e-05, No Iterations 4
ExecutionTime = 40.25 s  ClockTime = 41 s

forceCoeffs forceCoeffs1 write:
    Cm    = 0.155798
    Cd    = 0.407772
    Cl    = 0.0779042
    Cl(f) = 0.19475
    Cl(r) = -0.116846

Time = 97

smoothSolver:  Solving for Ux, Initial residual = 0.000999881, Final residual = 9.62817e-05, No Iterations 9
smoothSolver:  Solving for Uy, Initial residual = 0.0227315, Final residual = 0.00196786, No Iterations 9
smoothSolver:  Solving for Uz, Initial residual = 0.0197355, Final residual = 0.00172536, No Iterations 9
GAMG:  Solving for p, Initial residual = 0.00909963, Final residual = 8.03083e-05, No Iterations 4
time step continuity errors : sum local = 0.000120091, global = -3.15011e-06, cumulative = -0.000212583
smoothSolver:  Solving for omega, Initial residual = 0.000136018, Final residual = 1.12755e-05, No Iterations 3
smoothSolver:  Solving for k, Initial residual = 0.00191844, Final residual = 9.80834e-05, No Iterations 4
ExecutionTime = 40.65 s  ClockTime = 41 s

forceCoeffs forceCoeffs1 write:
    Cm    = 0.155614
    Cd    = 0.408071
    Cl    = 0.0776752
    Cl(f) = 0.194452
    Cl(r) = -0.116777

Time = 98

smoothSolver:  Solving for Ux, Initial residual = 0.000987034, Final residual = 9.53264e-05, No Iterations 9
smoothSolver:  Solving for Uy, Initial residual = 0.0223114, Final residual = 0.00195527, No Iterations 9
smoothSolver:  Solving for Uz, Initial residual = 0.0194074, Final residual = 0.00170932, No Iterations 9
GAMG:  Solving for p, Initial residual = 0.0089495, Final residual = 7.70345e-05, No Iterations 4
time step continuity errors : sum local = 0.000115182, global = -1.96425e-06, cumulative = -0.000214547
smoothSolver:  Solving for omega, Initial residual = 0.000134032, Final residual = 1.10593e-05, No Iterations 3
smoothSolver:  Solving for k, Initial residual = 0.00188088, Final residual = 9.57643e-05, No Iterations 4
ExecutionTime = 41.02 s  ClockTime = 42 s

forceCoeffs forceCoeffs1 write:
    Cm    = 0.155675
    Cd    = 0.408616
    Cl    = 0.077719
    Cl(f) = 0.194534
    Cl(r) = -0.116815

Time = 99

smoothSolver:  Solving for Ux, Initial residual = 0.00097367, Final residual = 9.52299e-05, No Iterations 9
smoothSolver:  Solving for Uy, Initial residual = 0.0218135, Final residual = 0.0019386, No Iterations 9
smoothSolver:  Solving for Uz, Initial residual = 0.0190198, Final residual = 0.00169655, No Iterations 9
GAMG:  Solving for p, Initial residual = 0.00879118, Final residual = 7.4642e-05, No Iterations 4
time step continuity errors : sum local = 0.000111636, global = -8.04787e-07, cumulative = -0.000215352
smoothSolver:  Solving for omega, Initial residual = 0.000132118, Final residual = 1.08745e-05, No Iterations 3
smoothSolver:  Solving for k, Initial residual = 0.00184259, Final residual = 9.32384e-05, No Iterations 4
ExecutionTime = 41.42 s  ClockTime = 42 s

forceCoeffs forceCoeffs1 write:
    Cm    = 0.155834
    Cd    = 0.409122
    Cl    = 0.0779632
    Cl(f) = 0.194815
    Cl(r) = -0.116852

Time = 100

smoothSolver:  Solving for Ux, Initial residual = 0.000960196, Final residual = 9.55048e-05, No Iterations 9
smoothSolver:  Solving for Uy, Initial residual = 0.0213164, Final residual = 0.00191429, No Iterations 9
smoothSolver:  Solving for Uz, Initial residual = 0.0186211, Final residual = 0.0016873, No Iterations 9
GAMG:  Solving for p, Initial residual = 0.00862057, Final residual = 7.35101e-05, No Iterations 4
time step continuity errors : sum local = 0.00011002, global = -2.85492e-07, cumulative = -0.000215638
smoothSolver:  Solving for omega, Initial residual = 0.000130582, Final residual = 1.07214e-05, No Iterations 3
smoothSolver:  Solving for k, Initial residual = 0.00180168, Final residual = 9.09026e-05, No Iterations 4
ExecutionTime = 41.8 s  ClockTime = 42 s

forceCoeffs forceCoeffs1 write:
    Cm    = 0.156065
    Cd    = 0.40939
    Cl    = 0.0783617
    Cl(f) = 0.195246
    Cl(r) = -0.116885

End

Finalising parallel run
