/*---------------------------------------------------------------------------*\
  =========                 |
  \\      /  F ield         | OpenFOAM: The Open Source CFD Toolbox
   \\    /   O peration     | Website:  https://openfoam.org
    \\  /    A nd           | Version:  7
     \\/     M anipulation  |
\*---------------------------------------------------------------------------*/
Build  : 7
Exec   : snappyHexMesh -parallel -overwrite
Date   : Oct 14 2020
Time   : 17:39:19
Host   : "cpu-p-296"
PID    : 67363
I/O    : uncollated
Case   : /rds/user/hpcbras1/hpc-work/csd3/cclake-roce-gcc9-ompi3-ucx/openfoam/Openfoam_Mbike_csd3_cclake_roce_gcc9_ompi3_ucx_896_56
nProcs : 896
Slaves : 
895
(
"cpu-p-296.67364"
"cpu-p-296.67365"
"cpu-p-296.67366"
"cpu-p-296.67367"
"cpu-p-296.67368"
"cpu-p-296.67369"
"cpu-p-296.67370"
"cpu-p-296.67371"
"cpu-p-296.67372"
"cpu-p-296.67373"
"cpu-p-296.67374"
"cpu-p-296.67375"
"cpu-p-296.67376"
"cpu-p-296.67377"
"cpu-p-296.67378"
"cpu-p-296.67379"
"cpu-p-296.67380"
"cpu-p-296.67381"
"cpu-p-296.67382"
"cpu-p-296.67383"
"cpu-p-296.67384"
"cpu-p-296.67385"
"cpu-p-296.67386"
"cpu-p-296.67387"
"cpu-p-296.67388"
"cpu-p-296.67389"
"cpu-p-296.67390"
"cpu-p-296.67391"
"cpu-p-296.67392"
"cpu-p-296.67393"
"cpu-p-296.67396"
"cpu-p-296.67401"
"cpu-p-296.67402"
"cpu-p-296.67406"
"cpu-p-296.67411"
"cpu-p-296.67415"
"cpu-p-296.67418"
"cpu-p-296.67420"
"cpu-p-296.67421"
"cpu-p-296.67423"
"cpu-p-296.67426"
"cpu-p-296.67430"
"cpu-p-296.67432"
"cpu-p-296.67434"
"cpu-p-296.67437"
"cpu-p-296.67439"
"cpu-p-296.67457"
"cpu-p-296.67463"
"cpu-p-296.67471"
"cpu-p-296.67475"
"cpu-p-296.67476"
"cpu-p-296.67479"
"cpu-p-296.67485"
"cpu-p-296.67497"
"cpu-p-296.67502"
"cpu-p-297.169480"
"cpu-p-297.169481"
"cpu-p-297.169482"
"cpu-p-297.169483"
"cpu-p-297.169484"
"cpu-p-297.169485"
"cpu-p-297.169486"
"cpu-p-297.169487"
"cpu-p-297.169488"
"cpu-p-297.169489"
"cpu-p-297.169490"
"cpu-p-297.169491"
"cpu-p-297.169492"
"cpu-p-297.169493"
"cpu-p-297.169494"
"cpu-p-297.169495"
"cpu-p-297.169496"
"cpu-p-297.169497"
"cpu-p-297.169498"
"cpu-p-297.169499"
"cpu-p-297.169500"
"cpu-p-297.169501"
"cpu-p-297.169502"
"cpu-p-297.169503"
"cpu-p-297.169504"
"cpu-p-297.169505"
"cpu-p-297.169506"
"cpu-p-297.169507"
"cpu-p-297.169508"
"cpu-p-297.169509"
"cpu-p-297.169510"
"cpu-p-297.169511"
"cpu-p-297.169512"
"cpu-p-297.169513"
"cpu-p-297.169514"
"cpu-p-297.169515"
"cpu-p-297.169516"
"cpu-p-297.169517"
"cpu-p-297.169518"
"cpu-p-297.169519"
"cpu-p-297.169520"
"cpu-p-297.169521"
"cpu-p-297.169522"
"cpu-p-297.169523"
"cpu-p-297.169524"
"cpu-p-297.169525"
"cpu-p-297.169526"
"cpu-p-297.169530"
"cpu-p-297.169534"
"cpu-p-297.169540"
"cpu-p-297.169548"
"cpu-p-297.169550"
"cpu-p-297.169552"
"cpu-p-297.169556"
"cpu-p-297.169560"
"cpu-p-297.169562"
"cpu-p-298.156080"
"cpu-p-298.156081"
"cpu-p-298.156082"
"cpu-p-298.156083"
"cpu-p-298.156084"
"cpu-p-298.156085"
"cpu-p-298.156086"
"cpu-p-298.156087"
"cpu-p-298.156088"
"cpu-p-298.156089"
"cpu-p-298.156090"
"cpu-p-298.156091"
"cpu-p-298.156092"
"cpu-p-298.156093"
"cpu-p-298.156094"
"cpu-p-298.156095"
"cpu-p-298.156096"
"cpu-p-298.156097"
"cpu-p-298.156098"
"cpu-p-298.156099"
"cpu-p-298.156100"
"cpu-p-298.156101"
"cpu-p-298.156102"
"cpu-p-298.156103"
"cpu-p-298.156104"
"cpu-p-298.156105"
"cpu-p-298.156106"
"cpu-p-298.156107"
"cpu-p-298.156108"
"cpu-p-298.156109"
"cpu-p-298.156110"
"cpu-p-298.156111"
"cpu-p-298.156112"
"cpu-p-298.156113"
"cpu-p-298.156114"
"cpu-p-298.156115"
"cpu-p-298.156116"
"cpu-p-298.156117"
"cpu-p-298.156118"
"cpu-p-298.156119"
"cpu-p-298.156120"
"cpu-p-298.156121"
"cpu-p-298.156122"
"cpu-p-298.156123"
"cpu-p-298.156124"
"cpu-p-298.156125"
"cpu-p-298.156126"
"cpu-p-298.156127"
"cpu-p-298.156135"
"cpu-p-298.156144"
"cpu-p-298.156146"
"cpu-p-298.156153"
"cpu-p-298.156155"
"cpu-p-298.156157"
"cpu-p-298.156158"
"cpu-p-298.156163"
"cpu-p-299.63462"
"cpu-p-299.63463"
"cpu-p-299.63464"
"cpu-p-299.63465"
"cpu-p-299.63466"
"cpu-p-299.63467"
"cpu-p-299.63468"
"cpu-p-299.63469"
"cpu-p-299.63470"
"cpu-p-299.63471"
"cpu-p-299.63472"
"cpu-p-299.63473"
"cpu-p-299.63474"
"cpu-p-299.63475"
"cpu-p-299.63476"
"cpu-p-299.63477"
"cpu-p-299.63478"
"cpu-p-299.63479"
"cpu-p-299.63480"
"cpu-p-299.63481"
"cpu-p-299.63482"
"cpu-p-299.63483"
"cpu-p-299.63484"
"cpu-p-299.63485"
"cpu-p-299.63486"
"cpu-p-299.63487"
"cpu-p-299.63488"
"cpu-p-299.63489"
"cpu-p-299.63490"
"cpu-p-299.63491"
"cpu-p-299.63492"
"cpu-p-299.63493"
"cpu-p-299.63494"
"cpu-p-299.63495"
"cpu-p-299.63496"
"cpu-p-299.63497"
"cpu-p-299.63498"
"cpu-p-299.63499"
"cpu-p-299.63500"
"cpu-p-299.63501"
"cpu-p-299.63502"
"cpu-p-299.63503"
"cpu-p-299.63504"
"cpu-p-299.63505"
"cpu-p-299.63506"
"cpu-p-299.63507"
"cpu-p-299.63508"
"cpu-p-299.63509"
"cpu-p-299.63510"
"cpu-p-299.63515"
"cpu-p-299.63527"
"cpu-p-299.63536"
"cpu-p-299.63540"
"cpu-p-299.63547"
"cpu-p-299.63554"
"cpu-p-299.63557"
"cpu-p-300.84706"
"cpu-p-300.84707"
"cpu-p-300.84708"
"cpu-p-300.84709"
"cpu-p-300.84710"
"cpu-p-300.84711"
"cpu-p-300.84712"
"cpu-p-300.84713"
"cpu-p-300.84714"
"cpu-p-300.84715"
"cpu-p-300.84716"
"cpu-p-300.84717"
"cpu-p-300.84718"
"cpu-p-300.84719"
"cpu-p-300.84720"
"cpu-p-300.84721"
"cpu-p-300.84722"
"cpu-p-300.84723"
"cpu-p-300.84724"
"cpu-p-300.84725"
"cpu-p-300.84726"
"cpu-p-300.84727"
"cpu-p-300.84728"
"cpu-p-300.84729"
"cpu-p-300.84730"
"cpu-p-300.84731"
"cpu-p-300.84732"
"cpu-p-300.84733"
"cpu-p-300.84734"
"cpu-p-300.84735"
"cpu-p-300.84736"
"cpu-p-300.84737"
"cpu-p-300.84738"
"cpu-p-300.84739"
"cpu-p-300.84740"
"cpu-p-300.84741"
"cpu-p-300.84742"
"cpu-p-300.84743"
"cpu-p-300.84744"
"cpu-p-300.84745"
"cpu-p-300.84746"
"cpu-p-300.84747"
"cpu-p-300.84748"
"cpu-p-300.84749"
"cpu-p-300.84763"
"cpu-p-300.84770"
"cpu-p-300.84773"
"cpu-p-300.84775"
"cpu-p-300.84776"
"cpu-p-300.84777"
"cpu-p-300.84778"
"cpu-p-300.84782"
"cpu-p-300.84785"
"cpu-p-300.84787"
"cpu-p-300.84791"
"cpu-p-300.84795"
"cpu-p-301.80745"
"cpu-p-301.80746"
"cpu-p-301.80747"
"cpu-p-301.80748"
"cpu-p-301.80749"
"cpu-p-301.80750"
"cpu-p-301.80751"
"cpu-p-301.80752"
"cpu-p-301.80753"
"cpu-p-301.80754"
"cpu-p-301.80755"
"cpu-p-301.80756"
"cpu-p-301.80757"
"cpu-p-301.80758"
"cpu-p-301.80759"
"cpu-p-301.80760"
"cpu-p-301.80761"
"cpu-p-301.80762"
"cpu-p-301.80763"
"cpu-p-301.80764"
"cpu-p-301.80765"
"cpu-p-301.80766"
"cpu-p-301.80767"
"cpu-p-301.80768"
"cpu-p-301.80769"
"cpu-p-301.80770"
"cpu-p-301.80771"
"cpu-p-301.80772"
"cpu-p-301.80773"
"cpu-p-301.80774"
"cpu-p-301.80775"
"cpu-p-301.80776"
"cpu-p-301.80777"
"cpu-p-301.80778"
"cpu-p-301.80779"
"cpu-p-301.80780"
"cpu-p-301.80781"
"cpu-p-301.80782"
"cpu-p-301.80783"
"cpu-p-301.80784"
"cpu-p-301.80785"
"cpu-p-301.80786"
"cpu-p-301.80787"
"cpu-p-301.80788"
"cpu-p-301.80789"
"cpu-p-301.80790"
"cpu-p-301.80795"
"cpu-p-301.80804"
"cpu-p-301.80808"
"cpu-p-301.80813"
"cpu-p-301.80818"
"cpu-p-301.80824"
"cpu-p-301.80827"
"cpu-p-301.80829"
"cpu-p-301.80831"
"cpu-p-301.80832"
"cpu-p-302.50010"
"cpu-p-302.50011"
"cpu-p-302.50012"
"cpu-p-302.50013"
"cpu-p-302.50014"
"cpu-p-302.50015"
"cpu-p-302.50016"
"cpu-p-302.50017"
"cpu-p-302.50018"
"cpu-p-302.50019"
"cpu-p-302.50020"
"cpu-p-302.50021"
"cpu-p-302.50022"
"cpu-p-302.50023"
"cpu-p-302.50024"
"cpu-p-302.50025"
"cpu-p-302.50026"
"cpu-p-302.50027"
"cpu-p-302.50028"
"cpu-p-302.50029"
"cpu-p-302.50030"
"cpu-p-302.50031"
"cpu-p-302.50032"
"cpu-p-302.50033"
"cpu-p-302.50034"
"cpu-p-302.50035"
"cpu-p-302.50036"
"cpu-p-302.50037"
"cpu-p-302.50038"
"cpu-p-302.50039"
"cpu-p-302.50040"
"cpu-p-302.50041"
"cpu-p-302.50042"
"cpu-p-302.50043"
"cpu-p-302.50044"
"cpu-p-302.50045"
"cpu-p-302.50046"
"cpu-p-302.50047"
"cpu-p-302.50048"
"cpu-p-302.50049"
"cpu-p-302.50050"
"cpu-p-302.50051"
"cpu-p-302.50052"
"cpu-p-302.50053"
"cpu-p-302.50054"
"cpu-p-302.50055"
"cpu-p-302.50067"
"cpu-p-302.50081"
"cpu-p-302.50084"
"cpu-p-302.50086"
"cpu-p-302.50090"
"cpu-p-302.50092"
"cpu-p-302.50094"
"cpu-p-302.50098"
"cpu-p-302.50103"
"cpu-p-302.50108"
"cpu-p-303.231378"
"cpu-p-303.231379"
"cpu-p-303.231380"
"cpu-p-303.231381"
"cpu-p-303.231382"
"cpu-p-303.231383"
"cpu-p-303.231384"
"cpu-p-303.231385"
"cpu-p-303.231386"
"cpu-p-303.231387"
"cpu-p-303.231388"
"cpu-p-303.231389"
"cpu-p-303.231390"
"cpu-p-303.231391"
"cpu-p-303.231392"
"cpu-p-303.231393"
"cpu-p-303.231394"
"cpu-p-303.231395"
"cpu-p-303.231396"
"cpu-p-303.231397"
"cpu-p-303.231398"
"cpu-p-303.231399"
"cpu-p-303.231400"
"cpu-p-303.231401"
"cpu-p-303.231402"
"cpu-p-303.231403"
"cpu-p-303.231404"
"cpu-p-303.231405"
"cpu-p-303.231406"
"cpu-p-303.231407"
"cpu-p-303.231408"
"cpu-p-303.231409"
"cpu-p-303.231410"
"cpu-p-303.231411"
"cpu-p-303.231412"
"cpu-p-303.231413"
"cpu-p-303.231414"
"cpu-p-303.231415"
"cpu-p-303.231416"
"cpu-p-303.231417"
"cpu-p-303.231418"
"cpu-p-303.231419"
"cpu-p-303.231420"
"cpu-p-303.231421"
"cpu-p-303.231422"
"cpu-p-303.231423"
"cpu-p-303.231424"
"cpu-p-303.231425"
"cpu-p-303.231436"
"cpu-p-303.231448"
"cpu-p-303.231450"
"cpu-p-303.231456"
"cpu-p-303.231459"
"cpu-p-303.231461"
"cpu-p-303.231462"
"cpu-p-303.231465"
"cpu-p-304.812"
"cpu-p-304.813"
"cpu-p-304.814"
"cpu-p-304.815"
"cpu-p-304.816"
"cpu-p-304.817"
"cpu-p-304.818"
"cpu-p-304.819"
"cpu-p-304.820"
"cpu-p-304.821"
"cpu-p-304.822"
"cpu-p-304.823"
"cpu-p-304.824"
"cpu-p-304.825"
"cpu-p-304.826"
"cpu-p-304.827"
"cpu-p-304.828"
"cpu-p-304.829"
"cpu-p-304.830"
"cpu-p-304.831"
"cpu-p-304.832"
"cpu-p-304.833"
"cpu-p-304.834"
"cpu-p-304.835"
"cpu-p-304.836"
"cpu-p-304.837"
"cpu-p-304.838"
"cpu-p-304.839"
"cpu-p-304.840"
"cpu-p-304.841"
"cpu-p-304.842"
"cpu-p-304.843"
"cpu-p-304.844"
"cpu-p-304.845"
"cpu-p-304.846"
"cpu-p-304.847"
"cpu-p-304.848"
"cpu-p-304.849"
"cpu-p-304.850"
"cpu-p-304.851"
"cpu-p-304.852"
"cpu-p-304.853"
"cpu-p-304.854"
"cpu-p-304.857"
"cpu-p-304.858"
"cpu-p-304.859"
"cpu-p-304.860"
"cpu-p-304.861"
"cpu-p-304.862"
"cpu-p-304.868"
"cpu-p-304.879"
"cpu-p-304.885"
"cpu-p-304.889"
"cpu-p-304.894"
"cpu-p-304.898"
"cpu-p-304.901"
"cpu-p-305.2887"
"cpu-p-305.2888"
"cpu-p-305.2889"
"cpu-p-305.2890"
"cpu-p-305.2891"
"cpu-p-305.2892"
"cpu-p-305.2893"
"cpu-p-305.2894"
"cpu-p-305.2895"
"cpu-p-305.2896"
"cpu-p-305.2897"
"cpu-p-305.2898"
"cpu-p-305.2899"
"cpu-p-305.2900"
"cpu-p-305.2901"
"cpu-p-305.2902"
"cpu-p-305.2903"
"cpu-p-305.2904"
"cpu-p-305.2905"
"cpu-p-305.2908"
"cpu-p-305.2909"
"cpu-p-305.2911"
"cpu-p-305.2912"
"cpu-p-305.2913"
"cpu-p-305.2914"
"cpu-p-305.2915"
"cpu-p-305.2916"
"cpu-p-305.2917"
"cpu-p-305.2918"
"cpu-p-305.2919"
"cpu-p-305.2920"
"cpu-p-305.2921"
"cpu-p-305.2922"
"cpu-p-305.2923"
"cpu-p-305.2924"
"cpu-p-305.2925"
"cpu-p-305.2926"
"cpu-p-305.2927"
"cpu-p-305.2928"
"cpu-p-305.2929"
"cpu-p-305.2930"
"cpu-p-305.2931"
"cpu-p-305.2932"
"cpu-p-305.2933"
"cpu-p-305.2934"
"cpu-p-305.2935"
"cpu-p-305.2939"
"cpu-p-305.2949"
"cpu-p-305.2956"
"cpu-p-305.2959"
"cpu-p-305.2961"
"cpu-p-305.2966"
"cpu-p-305.2971"
"cpu-p-305.2973"
"cpu-p-305.2975"
"cpu-p-305.2979"
"cpu-p-306.282784"
"cpu-p-306.282785"
"cpu-p-306.282786"
"cpu-p-306.282787"
"cpu-p-306.282788"
"cpu-p-306.282789"
"cpu-p-306.282790"
"cpu-p-306.282791"
"cpu-p-306.282792"
"cpu-p-306.282793"
"cpu-p-306.282794"
"cpu-p-306.282795"
"cpu-p-306.282796"
"cpu-p-306.282797"
"cpu-p-306.282798"
"cpu-p-306.282799"
"cpu-p-306.282800"
"cpu-p-306.282801"
"cpu-p-306.282802"
"cpu-p-306.282803"
"cpu-p-306.282804"
"cpu-p-306.282805"
"cpu-p-306.282806"
"cpu-p-306.282807"
"cpu-p-306.282808"
"cpu-p-306.282809"
"cpu-p-306.282810"
"cpu-p-306.282811"
"cpu-p-306.282812"
"cpu-p-306.282813"
"cpu-p-306.282814"
"cpu-p-306.282815"
"cpu-p-306.282816"
"cpu-p-306.282817"
"cpu-p-306.282818"
"cpu-p-306.282819"
"cpu-p-306.282820"
"cpu-p-306.282821"
"cpu-p-306.282822"
"cpu-p-306.282823"
"cpu-p-306.282824"
"cpu-p-306.282825"
"cpu-p-306.282826"
"cpu-p-306.282827"
"cpu-p-306.282828"
"cpu-p-306.282829"
"cpu-p-306.282830"
"cpu-p-306.282831"
"cpu-p-306.282842"
"cpu-p-306.282855"
"cpu-p-306.282857"
"cpu-p-306.282860"
"cpu-p-306.282863"
"cpu-p-306.282865"
"cpu-p-306.282867"
"cpu-p-306.282869"
"cpu-p-307.248127"
"cpu-p-307.248128"
"cpu-p-307.248129"
"cpu-p-307.248130"
"cpu-p-307.248131"
"cpu-p-307.248132"
"cpu-p-307.248133"
"cpu-p-307.248134"
"cpu-p-307.248135"
"cpu-p-307.248136"
"cpu-p-307.248137"
"cpu-p-307.248138"
"cpu-p-307.248139"
"cpu-p-307.248140"
"cpu-p-307.248141"
"cpu-p-307.248142"
"cpu-p-307.248143"
"cpu-p-307.248144"
"cpu-p-307.248145"
"cpu-p-307.248146"
"cpu-p-307.248147"
"cpu-p-307.248148"
"cpu-p-307.248149"
"cpu-p-307.248150"
"cpu-p-307.248151"
"cpu-p-307.248152"
"cpu-p-307.248153"
"cpu-p-307.248154"
"cpu-p-307.248155"
"cpu-p-307.248156"
"cpu-p-307.248157"
"cpu-p-307.248158"
"cpu-p-307.248159"
"cpu-p-307.248160"
"cpu-p-307.248161"
"cpu-p-307.248166"
"cpu-p-307.248178"
"cpu-p-307.248186"
"cpu-p-307.248189"
"cpu-p-307.248190"
"cpu-p-307.248191"
"cpu-p-307.248197"
"cpu-p-307.248203"
"cpu-p-307.248208"
"cpu-p-307.248210"
"cpu-p-307.248211"
"cpu-p-307.248213"
"cpu-p-307.248217"
"cpu-p-307.248223"
"cpu-p-307.248227"
"cpu-p-307.248232"
"cpu-p-307.248233"
"cpu-p-307.248236"
"cpu-p-307.248237"
"cpu-p-307.248240"
"cpu-p-307.248242"
"cpu-p-308.261290"
"cpu-p-308.261291"
"cpu-p-308.261292"
"cpu-p-308.261293"
"cpu-p-308.261294"
"cpu-p-308.261295"
"cpu-p-308.261296"
"cpu-p-308.261297"
"cpu-p-308.261298"
"cpu-p-308.261299"
"cpu-p-308.261300"
"cpu-p-308.261301"
"cpu-p-308.261302"
"cpu-p-308.261303"
"cpu-p-308.261304"
"cpu-p-308.261305"
"cpu-p-308.261306"
"cpu-p-308.261307"
"cpu-p-308.261308"
"cpu-p-308.261309"
"cpu-p-308.261310"
"cpu-p-308.261311"
"cpu-p-308.261312"
"cpu-p-308.261313"
"cpu-p-308.261314"
"cpu-p-308.261315"
"cpu-p-308.261316"
"cpu-p-308.261317"
"cpu-p-308.261318"
"cpu-p-308.261319"
"cpu-p-308.261320"
"cpu-p-308.261321"
"cpu-p-308.261322"
"cpu-p-308.261323"
"cpu-p-308.261324"
"cpu-p-308.261325"
"cpu-p-308.261326"
"cpu-p-308.261327"
"cpu-p-308.261328"
"cpu-p-308.261329"
"cpu-p-308.261330"
"cpu-p-308.261336"
"cpu-p-308.261343"
"cpu-p-308.261350"
"cpu-p-308.261357"
"cpu-p-308.261362"
"cpu-p-308.261366"
"cpu-p-308.261369"
"cpu-p-308.261372"
"cpu-p-308.261376"
"cpu-p-308.261380"
"cpu-p-308.261383"
"cpu-p-308.261386"
"cpu-p-308.261388"
"cpu-p-308.261391"
"cpu-p-308.261394"
"cpu-p-309.266430"
"cpu-p-309.266431"
"cpu-p-309.266432"
"cpu-p-309.266433"
"cpu-p-309.266434"
"cpu-p-309.266435"
"cpu-p-309.266436"
"cpu-p-309.266437"
"cpu-p-309.266438"
"cpu-p-309.266439"
"cpu-p-309.266440"
"cpu-p-309.266441"
"cpu-p-309.266442"
"cpu-p-309.266443"
"cpu-p-309.266444"
"cpu-p-309.266445"
"cpu-p-309.266446"
"cpu-p-309.266447"
"cpu-p-309.266448"
"cpu-p-309.266449"
"cpu-p-309.266450"
"cpu-p-309.266451"
"cpu-p-309.266452"
"cpu-p-309.266453"
"cpu-p-309.266454"
"cpu-p-309.266455"
"cpu-p-309.266456"
"cpu-p-309.266457"
"cpu-p-309.266458"
"cpu-p-309.266459"
"cpu-p-309.266460"
"cpu-p-309.266461"
"cpu-p-309.266462"
"cpu-p-309.266463"
"cpu-p-309.266464"
"cpu-p-309.266465"
"cpu-p-309.266466"
"cpu-p-309.266467"
"cpu-p-309.266468"
"cpu-p-309.266469"
"cpu-p-309.266470"
"cpu-p-309.266471"
"cpu-p-309.266479"
"cpu-p-309.266488"
"cpu-p-309.266492"
"cpu-p-309.266493"
"cpu-p-309.266494"
"cpu-p-309.266500"
"cpu-p-309.266507"
"cpu-p-309.266510"
"cpu-p-309.266514"
"cpu-p-309.266519"
"cpu-p-309.266524"
"cpu-p-309.266525"
"cpu-p-309.266530"
"cpu-p-309.266534"
"cpu-p-310.246424"
"cpu-p-310.246425"
"cpu-p-310.246426"
"cpu-p-310.246427"
"cpu-p-310.246428"
"cpu-p-310.246429"
"cpu-p-310.246430"
"cpu-p-310.246431"
"cpu-p-310.246432"
"cpu-p-310.246433"
"cpu-p-310.246434"
"cpu-p-310.246435"
"cpu-p-310.246436"
"cpu-p-310.246437"
"cpu-p-310.246438"
"cpu-p-310.246439"
"cpu-p-310.246440"
"cpu-p-310.246441"
"cpu-p-310.246442"
"cpu-p-310.246443"
"cpu-p-310.246444"
"cpu-p-310.246445"
"cpu-p-310.246446"
"cpu-p-310.246447"
"cpu-p-310.246448"
"cpu-p-310.246449"
"cpu-p-310.246450"
"cpu-p-310.246451"
"cpu-p-310.246452"
"cpu-p-310.246453"
"cpu-p-310.246454"
"cpu-p-310.246455"
"cpu-p-310.246456"
"cpu-p-310.246457"
"cpu-p-310.246458"
"cpu-p-310.246459"
"cpu-p-310.246460"
"cpu-p-310.246461"
"cpu-p-310.246462"
"cpu-p-310.246463"
"cpu-p-310.246464"
"cpu-p-310.246465"
"cpu-p-310.246466"
"cpu-p-310.246467"
"cpu-p-310.246468"
"cpu-p-310.246469"
"cpu-p-310.246470"
"cpu-p-310.246471"
"cpu-p-310.246472"
"cpu-p-310.246483"
"cpu-p-310.246494"
"cpu-p-310.246499"
"cpu-p-310.246503"
"cpu-p-310.246505"
"cpu-p-310.246508"
"cpu-p-310.246519"
"cpu-p-311.134037"
"cpu-p-311.134038"
"cpu-p-311.134039"
"cpu-p-311.134040"
"cpu-p-311.134041"
"cpu-p-311.134042"
"cpu-p-311.134043"
"cpu-p-311.134044"
"cpu-p-311.134045"
"cpu-p-311.134046"
"cpu-p-311.134047"
"cpu-p-311.134048"
"cpu-p-311.134049"
"cpu-p-311.134050"
"cpu-p-311.134051"
"cpu-p-311.134052"
"cpu-p-311.134053"
"cpu-p-311.134054"
"cpu-p-311.134055"
"cpu-p-311.134056"
"cpu-p-311.134057"
"cpu-p-311.134058"
"cpu-p-311.134059"
"cpu-p-311.134060"
"cpu-p-311.134061"
"cpu-p-311.134062"
"cpu-p-311.134063"
"cpu-p-311.134064"
"cpu-p-311.134065"
"cpu-p-311.134066"
"cpu-p-311.134067"
"cpu-p-311.134068"
"cpu-p-311.134069"
"cpu-p-311.134070"
"cpu-p-311.134071"
"cpu-p-311.134072"
"cpu-p-311.134073"
"cpu-p-311.134074"
"cpu-p-311.134075"
"cpu-p-311.134076"
"cpu-p-311.134077"
"cpu-p-311.134078"
"cpu-p-311.134079"
"cpu-p-311.134080"
"cpu-p-311.134081"
"cpu-p-311.134082"
"cpu-p-311.134083"
"cpu-p-311.134088"
"cpu-p-311.134097"
"cpu-p-311.134103"
"cpu-p-311.134106"
"cpu-p-311.134109"
"cpu-p-311.134114"
"cpu-p-311.134116"
"cpu-p-311.134119"
"cpu-p-311.134121"
)

Pstream initialized with:
    floatTransfer      : 0
    nProcsSimpleSum    : 0
    commsType          : nonBlocking
    polling iterations : 0
sigFpe : Enabling floating point exception trapping (FOAM_SIGFPE).
fileModificationChecking : Monitoring run-time modified files using timeStampMaster (fileModificationSkew 10)
allowSystemOperations : Allowing user-supplied system call operations

// * * * * * * * * * * * * * * * * * * * * * * * * * * * * * * * * * * * * * //
Create time

Create mesh for time = 0

Read mesh in = 0.15 s

Overall mesh bounding box  : (-5 -4 0) (15 4 8)
Relative tolerance         : 1e-06
Absolute matching distance : 2.29783e-05

Reading refinement surfaces.
Read refinement surfaces in = 1.81 s

Reading refinement shells.
Refinement level 4 for all cells inside refinementBox
Read refinement shells in = 0 s

Setting refinement level of surface to be consistent with shells.
Checked shell refinement in = 1.43 s

Reading features.
Read edgeMesh motorBike.eMesh
    points      : 20665
    edges       : 20867
    boundingBox : (-0.241214 -0.337971 -4.232e-05) (1.75115 0.329368 1.21979)

Refinement level according to distance to "motorBike.eMesh" (20665 points, 20867 edges).
    level 6 for all cells within 0 metre.
Read features in = 0.08 s


Determining initial surface intersections
-----------------------------------------

Edge intersection testing:
    Number of edges             : 32256
    Number of edges to retest   : 32256
    Number of intersected edges : 26
Calculated surface intersections in = 2.43 s

Initial mesh : cells:10240  faces:32256  points:11849
Cells per refinement level:
    0	10240

Adding patches for surface regions
----------------------------------

Patch Type                Region                        
----- ----                ------                        
motorBike:

5     wall                motorBike_frt-fairing:001%1   
6     wall                motorBike_windshield:002%2    
7     wall                motorBike_rr-wh-rim:005%5     
8     wall                motorBike_rr-wh-rim:010%10    
9     wall                motorBike_fr-wh-rim:011%11    
10    wall                motorBike_fr-wh-brake-disk:012%12
11    wall                motorBike_frame:016-shadow%13 
12    wall                motorBike_rear-susp:014%14    
13    wall                motorBike_rear-susp:014-shadow%15
14    wall                motorBike_frame:016%16        
15    wall                motorBike_rr-wh-rim:005-shadow%17
16    wall                motorBike_rr-wh-chain-hub:022%22
17    wall                motorBike_rearseat%24         
18    wall                motorBike_frt-fairing%25      
19    wall                motorBike_windshield%26       
20    wall                motorBike_headlights%27       
21    wall                motorBike_driversseat%28      
22    wall                motorBike_rear-body%29        
23    wall                motorBike_fuel-tank%30        
24    wall                motorBike_exhaust%31          
25    wall                motorBike_rr-wh-rim%32        
26    wall                motorBike_fr-mud-guard%33     
27    wall                motorBike_fr-wh-rim%34        
28    wall                motorBike_fr-wh-brake-disk%35 
29    wall                motorBike_fr-brake-caliper%36 
30    wall                motorBike_fr-wh-tyre%37       
31    wall                motorBike_hbars%38            
32    wall                motorBike_fr-forks%39         
33    wall                motorBike_chain%40            
34    wall                motorBike_rr-wh-tyre%41       
35    wall                motorBike_square-dial%42      
36    wall                motorBike_round-dial%43       
37    wall                motorBike_dial-holder%44      
38    wall                motorBike_rear-susp%45        
39    wall                motorBike_rear-brake-lights%46
40    wall                motorBike_rear-light-bracket%47
41    wall                motorBike_frame%48            
42    wall                motorBike_rear-mud-guard%49   
43    wall                motorBike_rear-susp-spring-damp%50
44    wall                motorBike_fairing-inner-plate%51
45    wall                motorBike_clutch-housing%52   
46    wall                motorBike_radiator%53         
47    wall                motorBike_water-pipe%54       
48    wall                motorBike_water-pump%55       
49    wall                motorBike_engine%56           
50    wall                motorBike_rear-shock-link%57  
51    wall                motorBike_rear-brake-fluid-pot-bracket%58
52    wall                motorBike_rear-brake-fluid-pot%59
53    wall                motorBike_footpeg%60          
54    wall                motorBike_rr-wh-chain-hub%61  
55    wall                motorBike_rear-brake-caliper%62
56    wall                motorBike_rider-helmet%65     
57    wall                motorBike_rider-visor%66      
58    wall                motorBike_rider-boots%67      
59    wall                motorBike_rider-gloves%68     
60    wall                motorBike_rider-body%69       
61    wall                motorBike_frame:0%70          
62    wall                motorBike_frt-fairing:001-shadow%74
63    wall                motorBike_windshield-shadow%75
64    wall                motorBike_fr-mud-guard-shadow%81
65    wall                motorBike_fr-wh-brake-disk-shadow%83
66    wall                motorBike_rear-mud-guard-shadow%84
67    wall                motorBike_rear-susp-spring-damp-shadow%85
68    wall                motorBike_radiator-shadow%86  
69    wall                motorBike_rear-shock-link-shadow%87
70    wall                motorBike_rear-brake-fluid-pot-bracket-shadow%88
71    wall                motorBike_rr-wh-chain-hub-shadow%89

Added patches in = 0.06 s

[0]  Foam::decompositionMethod::New 
[0] {
[0]     numberOfSubdomains 896;
[0]     method          scotch;
[0]     simpleCoeffs
[0]     {
[0]         n               ( 4 1 1 );
[0]         delta           0.001;
[0]     }
[0]     hierarchicalCoeffs
[0]     {
[0]         n               ( 3 2 1 );
[0]         delta           0.001;
[0]         order           xyz;
[0]     }
[0]     manualCoeffs
[0]     {
[0]         dataFile        "cellDecomposition";
[0]     }
[0] }
[0] 
[0] Selecting decompositionMethod scotch
[1]  Foam::decompositionMethod::New 
[1] {
[1]     numberOfSubdomains 896;
[1]     method          scotch;
[1]     simpleCoeffs
[1]     {
[1]         n               ( 4 1 1 );
[1]         delta           0.001;
[1]     }
[1]     hierarchicalCoeffs
[1]     {
[1]         n               ( 3 2 1 );
[1]         delta           0.001;
[1]         order           xyz;
[1]     }
[1]     manualCoeffs
[1]     {
[1]         dataFile        "cellDecomposition";
[1]     }
[1] }
[1] 
[1] Selecting decompositionMethod scotch
[2]  Foam::decompositionMethod::New 
[2] {
[2]     numberOfSubdomains 896;
[2]     method          scotch;
[2]     simpleCoeffs
[2]     {
[2]         n               ( 4 1 1 );
[2]         delta           0.001;
[2]     }
[2]     hierarchicalCoeffs
[2]     {
[2]         n               ( 3 2 1 );
[2]         delta           0.001;
[2]         order           xyz;
[2]     }
[2]     manualCoeffs
[2]     {
[2]         dataFile        "cellDecomposition";
[2]     }
[2] }
[2] 
[2] Selecting decompositionMethod scotch
[3]  Foam::decompositionMethod::New 
[3] {
[3]     numberOfSubdomains 896;
[3]     method          scotch;
[3]     simpleCoeffs
[3]     {
[3]         n               ( 4 1 1 );
[3]         delta           0.001;
[3]     }
[3]     hierarchicalCoeffs
[3]     {
[3]         n               ( 3 2 1 );
[3]         delta           0.001;
[3]         order           xyz;
[3]     }
[3]     manualCoeffs
[3]     {
[3]         dataFile        "cellDecomposition";
[3]     }
[3] }
[3] 
[3] Selecting decompositionMethod scotch
[4]  Foam::decompositionMethod::New 
[4] {
[4]     numberOfSubdomains 896;
[4]     method          scotch;
[4]     simpleCoeffs
[4]     {
[4]         n               ( 4 1 1 );
[4]         delta           0.001;
[4]     }
[4]     hierarchicalCoeffs
[4]     {
[4]         n               ( 3 2 1 );
[4]         delta           0.001;
[4]         order           xyz;
[4]     }
[4]     manualCoeffs
[4]     {
[4]         dataFile        "cellDecomposition";
[4]     }
[4] }
[4] 
[4] Selecting decompositionMethod scotch
[5]  Foam::decompositionMethod::New 
[5] {
[5]     numberOfSubdomains 896;
[5]     method          scotch;
[5]     simpleCoeffs
[5]     {
[5]         n               ( 4 1 1 );
[5]         delta           0.001;
[5]     }
[5]     hierarchicalCoeffs
[5]     {
[5]         n               ( 3 2 1 );
[5]         delta           0.001;
[5]         order           xyz;
[5]     }
[5]     manualCoeffs
[5]     {
[5]         dataFile        "cellDecomposition";
[5]     }
[5] }
[5] 
[5] Selecting decompositionMethod scotch
[6]  Foam::decompositionMethod::New 
[6] {
[6]     numberOfSubdomains 896;
[6]     method          scotch;
[6]     simpleCoeffs
[6]     {
[6]         n               ( 4 1 1 );
[6]         delta           0.001;
[6]     }
[6]     hierarchicalCoeffs
[6]     {
[6]         n               ( 3 2 1 );
[6]         delta           0.001;
[6]         order           xyz;
[6]     }
[6]     manualCoeffs
[6]     {
[6]         dataFile        "cellDecomposition";
[6]     }
[6] }
[6] 
[6] Selecting decompositionMethod scotch
[7]  Foam::decompositionMethod::New 
[7] {
[7]     numberOfSubdomains 896;
[7]     method          scotch;
[7]     simpleCoeffs
[7]     {
[7]         n               ( 4 1 1 );
[7]         delta           0.001;
[7]     }
[7]     hierarchicalCoeffs
[7]     {
[7]         n               ( 3 2 1 );
[7]         delta           0.001;
[7]         order           xyz;
[7]     }
[7]     manualCoeffs
[7]     {
[7]         dataFile        "cellDecomposition";
[7]     }
[7] }
[7] 
[7] Selecting decompositionMethod scotch
[8]  Foam::decompositionMethod::New 
[8] {
[8]     numberOfSubdomains 896;
[8]     method          scotch;
[8]     simpleCoeffs
[8]     {
[8]         n               ( 4 1 1 );
[8]         delta           0.001;
[8]     }
[8]     hierarchicalCoeffs
[8]     {
[8]         n               ( 3 2 1 );
[8]         delta           0.001;
[8]         order           xyz;
[8]     }
[8]     manualCoeffs
[8]     {
[8]         dataFile        "cellDecomposition";
[8]     }
[8] }
[8] 
[8] Selecting decompositionMethod scotch
[9]  Foam::decompositionMethod::New 
[9] {
[9]     numberOfSubdomains 896;
[9]     method          scotch;
[9]     simpleCoeffs
[9]     {
[9]         n               ( 4 1 1 );
[9]         delta           0.001;
[9]     }
[9]     hierarchicalCoeffs
[9]     {
[9]         n               ( 3 2 1 );
[9]         delta           0.001;
[9]         order           xyz;
[9]     }
[9]     manualCoeffs
[9]     {
[9]         dataFile        "cellDecomposition";
[9]     }
[9] }
[9] 
[9] Selecting decompositionMethod scotch
[10]  Foam::decompositionMethod::New 
[10] {
[10]     numberOfSubdomains 896;
[10]     method          scotch;
[10]     simpleCoeffs
[10]     {
[10]         n               ( 4 1 1 );
[10]         delta           0.001;
[10]     }
[10]     hierarchicalCoeffs
[10]     {
[10]         n               ( 3 2 1 );
[10]         delta           0.001;
[10]         order           xyz;
[10]     }
[10]     manualCoeffs
[10]     {
[10]         dataFile        "cellDecomposition";
[10]     }
[10] }
[10] 
[10] Selecting decompositionMethod scotch
[11]  Foam::decompositionMethod::New 
[11] {
[11]     numberOfSubdomains 896;
[11]     method          scotch;
[11]     simpleCoeffs
[11]     {
[11]         n               ( 4 1 1 );
[11]         delta           0.001;
[11]     }
[11]     hierarchicalCoeffs
[11]     {
[11]         n               ( 3 2 1 );
[11]         delta           0.001;
[11]         order           xyz;
[11]     }
[11]     manualCoeffs
[11]     {
[11]         dataFile        "cellDecomposition";
[11]     }
[11] }
[11] 
[11] Selecting decompositionMethod scotch
[12]  Foam::decompositionMethod::New 
[12] {
[12]     numberOfSubdomains 896;
[12]     method          scotch;
[12]     simpleCoeffs
[12]     {
[12]         n               ( 4 1 1 );
[12]         delta           0.001;
[12]     }
[12]     hierarchicalCoeffs
[12]     {
[12]         n               ( 3 2 1 );
[12]         delta           0.001;
[12]         order           xyz;
[12]     }
[12]     manualCoeffs
[12]     {
[12]         dataFile        "cellDecomposition";
[12]     }
[12] }
[12] 
[12] Selecting decompositionMethod scotch
[13]  Foam::decompositionMethod::New 
[13] {
[13]     numberOfSubdomains 896;
[13]     method          scotch;
[13]     simpleCoeffs
[13]     {
[13]         n               ( 4 1 1 );
[13]         delta           0.001;
[13]     }
[13]     hierarchicalCoeffs
[13]     {
[13]         n               ( 3 2 1 );
[13]         delta           0.001;
[13]         order           xyz;
[13]     }
[13]     manualCoeffs
[13]     {
[13]         dataFile        "cellDecomposition";
[13]     }
[13] }
[13] 
[13] Selecting decompositionMethod scotch
[14]  Foam::decompositionMethod::New 
[14] {
[14]     numberOfSubdomains 896;
[14]     method          scotch;
[14]     simpleCoeffs
[14]     {
[14]         n               ( 4 1 1 );
[14]         delta           0.001;
[14]     }
[14]     hierarchicalCoeffs
[14]     {
[14]         n               ( 3 2 1 );
[14]         delta           0.001;
[14]         order           xyz;
[14]     }
[14]     manualCoeffs
[14]     {
[14]         dataFile        "cellDecomposition";
[14]     }
[14] }
[14] 
[14] Selecting decompositionMethod scotch
[15]  Foam::decompositionMethod::New 
[15] {
[15]     numberOfSubdomains 896;
[15]     method          scotch;
[15]     simpleCoeffs
[15]     {
[15]         n               ( 4 1 1 );
[15]         delta           0.001;
[15]     }
[15]     hierarchicalCoeffs
[15]     {
[15]         n               ( 3 2 1 );
[15]         delta           0.001;
[15]         order           xyz;
[15]     }
[15]     manualCoeffs
[15]     {
[15]         dataFile        "cellDecomposition";
[15]     }
[15] }
[15] 
[15] Selecting decompositionMethod scotch
[16]  Foam::decompositionMethod::New 
[16] {
[16]     numberOfSubdomains 896;
[16]     method          scotch;
[16]     simpleCoeffs
[16]     {
[16]         n               ( 4 1 1 );
[16]         delta           0.001;
[16]     }
[16]     hierarchicalCoeffs
[16]     {
[16]         n               ( 3 2 1 );
[16]         delta           0.001;
[16]         order           xyz;
[16]     }
[16]     manualCoeffs
[16]     {
[16]         dataFile        "cellDecomposition";
[16]     }
[16] }
[16] 
[16] Selecting decompositionMethod scotch
[17]  Foam::decompositionMethod::New 
[17] {
[17]     numberOfSubdomains 896;
[17]     method          scotch;
[17]     simpleCoeffs
[17]     {
[17]         n               ( 4 1 1 );
[17]         delta           0.001;
[17]     }
[17]     hierarchicalCoeffs
[17]     {
[17]         n               ( 3 2 1 );
[17]         delta           0.001;
[17]         order           xyz;
[17]     }
[17]     manualCoeffs
[17]     {
[17]         dataFile        "cellDecomposition";
[17]     }
[17] }
[17] 
[17] Selecting decompositionMethod scotch
[18]  Foam::decompositionMethod::New 
[18] {
[18]     numberOfSubdomains 896;
[18]     method          scotch;
[18]     simpleCoeffs
[18]     {
[18]         n               ( 4 1 1 );
[18]         delta           0.001;
[18]     }
[18]     hierarchicalCoeffs
[18]     {
[18]         n               ( 3 2 1 );
[18]         delta           0.001;
[18]         order           xyz;
[18]     }
[18]     manualCoeffs
[18]     {
[18]         dataFile        "cellDecomposition";
[18]     }
[18] }
[18] 
[18] Selecting decompositionMethod scotch
[19]  Foam::decompositionMethod::New 
[19] {
[19]     numberOfSubdomains 896;
[19]     method          scotch;
[19]     simpleCoeffs
[19]     {
[19]         n               ( 4 1 1 );
[19]         delta           0.001;
[19]     }
[19]     hierarchicalCoeffs
[19]     {
[19]         n               ( 3 2 1 );
[19]         delta           0.001;
[19]         order           xyz;
[19]     }
[19]     manualCoeffs
[19]     {
[19]         dataFile        "cellDecomposition";
[19]     }
[19] }
[19] 
[19] Selecting decompositionMethod scotch
[20]  Foam::decompositionMethod::New 
[20] {
[20]     numberOfSubdomains 896;
[20]     method          scotch;
[20]     simpleCoeffs
[20]     {
[20]         n               ( 4 1 1 );
[20]         delta           0.001;
[20]     }
[20]     hierarchicalCoeffs
[20]     {
[20]         n               ( 3 2 1 );
[20]         delta           0.001;
[20]         order           xyz;
[20]     }
[20]     manualCoeffs
[20]     {
[20]         dataFile        "cellDecomposition";
[20]     }
[20] }
[20] 
[20] Selecting decompositionMethod scotch
[21]  Foam::decompositionMethod::New 
[21] {
[21]     numberOfSubdomains 896;
[21]     method          scotch;
[21]     simpleCoeffs
[21]     {
[21]         n               ( 4 1 1 );
[21]         delta           0.001;
[21]     }
[21]     hierarchicalCoeffs
[21]     {
[21]         n               ( 3 2 1 );
[21]         delta           0.001;
[21]         order           xyz;
[21]     }
[21]     manualCoeffs
[21]     {
[21]         dataFile        "cellDecomposition";
[21]     }
[21] }
[21] 
[21] Selecting decompositionMethod scotch
[22]  Foam::decompositionMethod::New 
[22] {
[22]     numberOfSubdomains 896;
[22]     method          scotch;
[22]     simpleCoeffs
[22]     {
[22]         n               ( 4 1 1 );
[22]         delta           0.001;
[22]     }
[22]     hierarchicalCoeffs
[22]     {
[22]         n               ( 3 2 1 );
[22]         delta           0.001;
[22]         order           xyz;
[22]     }
[22]     manualCoeffs
[22]     {
[22]         dataFile        "cellDecomposition";
[22]     }
[22] }
[22] 
[22] Selecting decompositionMethod scotch
[23]  Foam::decompositionMethod::New 
[23] {
[23]     numberOfSubdomains 896;
[23]     method          scotch;
[23]     simpleCoeffs
[23]     {
[23]         n               ( 4 1 1 );
[23]         delta           0.001;
[23]     }
[23]     hierarchicalCoeffs
[23]     {
[23]         n               ( 3 2 1 );
[23]         delta           0.001;
[23]         order           xyz;
[23]     }
[23]     manualCoeffs
[23]     {
[23]         dataFile        "cellDecomposition";
[23]     }
[23] }
[23] 
[23] Selecting decompositionMethod scotch
[24]  Foam::decompositionMethod::New 
[24] {
[24]     numberOfSubdomains 896;
[24]     method          scotch;
[24]     simpleCoeffs
[24]     {
[24]         n               ( 4 1 1 );
[24]         delta           0.001;
[24]     }
[24]     hierarchicalCoeffs
[24]     {
[24]         n               ( 3 2 1 );
[24]         delta           0.001;
[24]         order           xyz;
[24]     }
[24]     manualCoeffs
[24]     {
[24]         dataFile        "cellDecomposition";
[24]     }
[24] }
[24] 
[24] Selecting decompositionMethod scotch
[25]  Foam::decompositionMethod::New 
[25] {
[25]     numberOfSubdomains 896;
[25]     method          scotch;
[25]     simpleCoeffs
[25]     {
[25]         n               ( 4 1 1 );
[25]         delta           0.001;
[25]     }
[25]     hierarchicalCoeffs
[25]     {
[25]         n               ( 3 2 1 );
[25]         delta           0.001;
[25]         order           xyz;
[25]     }
[25]     manualCoeffs
[25]     {
[25]         dataFile        "cellDecomposition";
[25]     }
[25] }
[25] 
[25] Selecting decompositionMethod scotch
[26]  Foam::decompositionMethod::New 
[26] {
[26]     numberOfSubdomains 896;
[26]     method          scotch;
[26]     simpleCoeffs
[26]     {
[26]         n               ( 4 1 1 );
[26]         delta           0.001;
[26]     }
[26]     hierarchicalCoeffs
[26]     {
[26]         n               ( 3 2 1 );
[26]         delta           0.001;
[26]         order           xyz;
[26]     }
[26]     manualCoeffs
[26]     {
[26]         dataFile        "cellDecomposition";
[26]     }
[26] }
[26] 
[26] Selecting decompositionMethod scotch
[27]  Foam::decompositionMethod::New 
[27] {
[27]     numberOfSubdomains 896;
[27]     method          scotch;
[27]     simpleCoeffs
[27]     {
[27]         n               ( 4 1 1 );
[27]         delta           0.001;
[27]     }
[27]     hierarchicalCoeffs
[27]     {
[27]         n               ( 3 2 1 );
[27]         delta           0.001;
[27]         order           xyz;
[27]     }
[27]     manualCoeffs
[27]     {
[27]         dataFile        "cellDecomposition";
[27]     }
[27] }
[27] 
[27] Selecting decompositionMethod scotch
[28]  Foam::decompositionMethod::New 
[28] {
[28]     numberOfSubdomains 896;
[28]     method          scotch;
[28]     simpleCoeffs
[28]     {
[28]         n               ( 4 1 1 );
[28]         delta           0.001;
[28]     }
[28]     hierarchicalCoeffs
[28]     {
[28]         n               ( 3 2 1 );
[28]         delta           0.001;
[28]         order           xyz;
[28]     }
[28]     manualCoeffs
[28]     {
[28]         dataFile        "cellDecomposition";
[28]     }
[28] }
[28] 
[28] Selecting decompositionMethod scotch
[29]  Foam::decompositionMethod::New 
[29] {
[29]     numberOfSubdomains 896;
[29]     method          scotch;
[29]     simpleCoeffs
[29]     {
[29]         n               ( 4 1 1 );
[29]         delta           0.001;
[29]     }
[29]     hierarchicalCoeffs
[29]     {
[29]         n               ( 3 2 1 );
[29]         delta           0.001;
[29]         order           xyz;
[29]     }
[29]     manualCoeffs
[29]     {
[29]         dataFile        "cellDecomposition";
[29]     }
[29] }
[29] 
[29] Selecting decompositionMethod scotch
[30]  Foam::decompositionMethod::New 
[30] {
[30]     numberOfSubdomains 896;
[30]     method          scotch;
[30]     simpleCoeffs
[30]     {
[30]         n               ( 4 1 1 );
[30]         delta           0.001;
[30]     }
[30]     hierarchicalCoeffs
[30]     {
[30]         n               ( 3 2 1 );
[30]         delta           0.001;
[30]         order           xyz;
[30]     }
[30]     manualCoeffs
[30]     {
[30]         dataFile        "cellDecomposition";
[30]     }
[30] }
[30] 
[30] Selecting decompositionMethod scotch
[31]  Foam::decompositionMethod::New 
[31] {
[31]     numberOfSubdomains 896;
[31]     method          scotch;
[31]     simpleCoeffs
[31]     {
[31]         n               ( 4 1 1 );
[31]         delta           0.001;
[31]     }
[31]     hierarchicalCoeffs
[31]     {
[31]         n               ( 3 2 1 );
[31]         delta           0.001;
[31]         order           xyz;
[31]     }
[31]     manualCoeffs
[31]     {
[31]         dataFile        "cellDecomposition";
[31]     }
[31] }
[31] 
[31] Selecting decompositionMethod scotch
[32]  Foam::decompositionMethod::New 
[32] {
[32]     numberOfSubdomains 896;
[32]     method          scotch;
[32]     simpleCoeffs
[32]     {
[32]         n               ( 4 1 1 );
[32]         delta           0.001;
[32]     }
[32]     hierarchicalCoeffs
[32]     {
[32]         n               ( 3 2 1 );
[32]         delta           0.001;
[32]         order           xyz;
[32]     }
[32]     manualCoeffs
[32]     {
[32]         dataFile        "cellDecomposition";
[32]     }
[32] }
[32] 
[32] Selecting decompositionMethod scotch
[33]  Foam::decompositionMethod::New 
[33] {
[33]     numberOfSubdomains 896;
[33]     method          scotch;
[33]     simpleCoeffs
[33]     {
[33]         n               ( 4 1 1 );
[33]         delta           0.001;
[33]     }
[33]     hierarchicalCoeffs
[33]     {
[33]         n               ( 3 2 1 );
[33]         delta           0.001;
[33]         order           xyz;
[33]     }
[33]     manualCoeffs
[33]     {
[33]         dataFile        "cellDecomposition";
[33]     }
[33] }
[33] 
[33] Selecting decompositionMethod scotch
[34]  Foam::decompositionMethod::New 
[34] {
[34]     numberOfSubdomains 896;
[34]     method          scotch;
[34]     simpleCoeffs
[34]     {
[34]         n               ( 4 1 1 );
[34]         delta           0.001;
[34]     }
[34]     hierarchicalCoeffs
[34]     {
[34]         n               ( 3 2 1 );
[34]         delta           0.001;
[34]         order           xyz;
[34]     }
[34]     manualCoeffs
[34]     {
[34]         dataFile        "cellDecomposition";
[34]     }
[34] }
[34] 
[34] Selecting decompositionMethod scotch
[35]  Foam::decompositionMethod::New 
[35] {
[35]     numberOfSubdomains 896;
[35]     method          scotch;
[35]     simpleCoeffs
[35]     {
[35]         n               ( 4 1 1 );
[35]         delta           0.001;
[35]     }
[35]     hierarchicalCoeffs
[35]     {
[35]         n               ( 3 2 1 );
[35]         delta           0.001;
[35]         order           xyz;
[35]     }
[35]     manualCoeffs
[35]     {
[35]         dataFile        "cellDecomposition";
[35]     }
[35] }
[35] 
[35] Selecting decompositionMethod scotch
[36]  Foam::decompositionMethod::New 
[36] {
[36]     numberOfSubdomains 896;
[36]     method          scotch;
[36]     simpleCoeffs
[36]     {
[36]         n               ( 4 1 1 );
[36]         delta           0.001;
[36]     }
[36]     hierarchicalCoeffs
[36]     {
[36]         n               ( 3 2 1 );
[36]         delta           0.001;
[36]         order           xyz;
[36]     }
[36]     manualCoeffs
[36]     {
[36]         dataFile        "cellDecomposition";
[36]     }
[36] }
[36] 
[36] Selecting decompositionMethod scotch
[37]  Foam::decompositionMethod::New 
[37] {
[37]     numberOfSubdomains 896;
[37]     method          scotch;
[37]     simpleCoeffs
[37]     {
[37]         n               ( 4 1 1 );
[37]         delta           0.001;
[37]     }
[37]     hierarchicalCoeffs
[37]     {
[37]         n               ( 3 2 1 );
[37]         delta           0.001;
[37]         order           xyz;
[37]     }
[37]     manualCoeffs
[37]     {
[37]         dataFile        "cellDecomposition";
[37]     }
[37] }
[37] 
[37] Selecting decompositionMethod scotch
[38]  Foam::decompositionMethod::New 
[38] {
[38]     numberOfSubdomains 896;
[38]     method          scotch;
[38]     simpleCoeffs
[38]     {
[38]         n               ( 4 1 1 );
[38]         delta           0.001;
[38]     }
[38]     hierarchicalCoeffs
[38]     {
[38]         n               ( 3 2 1 );
[38]         delta           0.001;
[38]         order           xyz;
[38]     }
[38]     manualCoeffs
[38]     {
[38]         dataFile        "cellDecomposition";
[38]     }
[38] }
[38] 
[38] Selecting decompositionMethod scotch
[39]  Foam::decompositionMethod::New 
[39] {
[39]     numberOfSubdomains 896;
[39]     method          scotch;
[39]     simpleCoeffs
[39]     {
[39]         n               ( 4 1 1 );
[39]         delta           0.001;
[39]     }
[39]     hierarchicalCoeffs
[39]     {
[39]         n               ( 3 2 1 );
[39]         delta           0.001;
[39]         order           xyz;
[39]     }
[39]     manualCoeffs
[39]     {
[39]         dataFile        "cellDecomposition";
[39]     }
[39] }
[39] 
[39] Selecting decompositionMethod scotch
[40]  Foam::decompositionMethod::New 
[40] {
[40]     numberOfSubdomains 896;
[40]     method          scotch;
[40]     simpleCoeffs
[40]     {
[40]         n               ( 4 1 1 );
[40]         delta           0.001;
[40]     }
[40]     hierarchicalCoeffs
[40]     {
[40]         n               ( 3 2 1 );
[40]         delta           0.001;
[40]         order           xyz;
[40]     }
[40]     manualCoeffs
[40]     {
[40]         dataFile        "cellDecomposition";
[40]     }
[40] }
[40] 
[40] Selecting decompositionMethod scotch
[41]  Foam::decompositionMethod::New 
[41] {
[41]     numberOfSubdomains 896;
[41]     method          scotch;
[41]     simpleCoeffs
[41]     {
[41]         n               ( 4 1 1 );
[41]         delta           0.001;
[41]     }
[41]     hierarchicalCoeffs
[41]     {
[41]         n               ( 3 2 1 );
[41]         delta           0.001;
[41]         order           xyz;
[41]     }
[41]     manualCoeffs
[41]     {
[41]         dataFile        "cellDecomposition";
[41]     }
[41] }
[41] 
[41] Selecting decompositionMethod scotch
[42]  Foam::decompositionMethod::New 
[42] {
[42]     numberOfSubdomains 896;
[42]     method          scotch;
[42]     simpleCoeffs
[42]     {
[42]         n               ( 4 1 1 );
[42]         delta           0.001;
[42]     }
[42]     hierarchicalCoeffs
[42]     {
[42]         n               ( 3 2 1 );
[42]         delta           0.001;
[42]         order           xyz;
[42]     }
[42]     manualCoeffs
[42]     {
[42]         dataFile        "cellDecomposition";
[42]     }
[42] }
[42] 
[42] Selecting decompositionMethod scotch
[43]  Foam::decompositionMethod::New 
[43] {
[43]     numberOfSubdomains 896;
[43]     method          scotch;
[43]     simpleCoeffs
[43]     {
[43]         n               ( 4 1 1 );
[43]         delta           0.001;
[43]     }
[43]     hierarchicalCoeffs
[43]     {
[43]         n               ( 3 2 1 );
[43]         delta           0.001;
[43]         order           xyz;
[43]     }
[43]     manualCoeffs
[43]     {
[43]         dataFile        "cellDecomposition";
[43]     }
[43] }
[43] 
[43] Selecting decompositionMethod scotch
[44]  Foam::decompositionMethod::New 
[44] {
[44]     numberOfSubdomains 896;
[44]     method          scotch;
[44]     simpleCoeffs
[44]     {
[44]         n               ( 4 1 1 );
[44]         delta           0.001;
[44]     }
[44]     hierarchicalCoeffs
[44]     {
[44]         n               ( 3 2 1 );
[44]         delta           0.001;
[44]         order           xyz;
[44]     }
[44]     manualCoeffs
[44]     {
[44]         dataFile        "cellDecomposition";
[44]     }
[44] }
[44] 
[44] Selecting decompositionMethod scotch
[45]  Foam::decompositionMethod::New 
[45] {
[45]     numberOfSubdomains 896;
[45]     method          scotch;
[45]     simpleCoeffs
[45]     {
[45]         n               ( 4 1 1 );
[45]         delta           0.001;
[45]     }
[45]     hierarchicalCoeffs
[45]     {
[45]         n               ( 3 2 1 );
[45]         delta           0.001;
[45]         order           xyz;
[45]     }
[45]     manualCoeffs
[45]     {
[45]         dataFile        "cellDecomposition";
[45]     }
[45] }
[45] 
[45] Selecting decompositionMethod scotch
[46]  Foam::decompositionMethod::New 
[46] {
[46]     numberOfSubdomains 896;
[46]     method          scotch;
[46]     simpleCoeffs
[46]     {
[46]         n               ( 4 1 1 );
[46]         delta           0.001;
[46]     }
[46]     hierarchicalCoeffs
[46]     {
[46]         n               ( 3 2 1 );
[46]         delta           0.001;
[46]         order           xyz;
[46]     }
[46]     manualCoeffs
[46]     {
[46]         dataFile        "cellDecomposition";
[46]     }
[46] }
[46] 
[46] Selecting decompositionMethod scotch
[47]  Foam::decompositionMethod::New 
[47] {
[47]     numberOfSubdomains 896;
[47]     method          scotch;
[47]     simpleCoeffs
[47]     {
[47]         n               ( 4 1 1 );
[47]         delta           0.001;
[47]     }
[47]     hierarchicalCoeffs
[47]     {
[47]         n               ( 3 2 1 );
[47]         delta           0.001;
[47]         order           xyz;
[47]     }
[47]     manualCoeffs
[47]     {
[47]         dataFile        "cellDecomposition";
[47]     }
[47] }
[47] 
[47] Selecting decompositionMethod scotch
[48]  Foam::decompositionMethod::New 
[48] {
[48]     numberOfSubdomains 896;
[48]     method          scotch;
[48]     simpleCoeffs
[48]     {
[48]         n               ( 4 1 1 );
[48]         delta           0.001;
[48]     }
[48]     hierarchicalCoeffs
[48]     {
[48]         n               ( 3 2 1 );
[48]         delta           0.001;
[48]         order           xyz;
[48]     }
[48]     manualCoeffs
[48]     {
[48]         dataFile        "cellDecomposition";
[48]     }
[48] }
[48] 
[48] Selecting decompositionMethod scotch
[49]  Foam::decompositionMethod::New 
[49] {
[49]     numberOfSubdomains 896;
[49]     method          scotch;
[49]     simpleCoeffs
[49]     {
[49]         n               ( 4 1 1 );
[49]         delta           0.001;
[49]     }
[49]     hierarchicalCoeffs
[49]     {
[49]         n               ( 3 2 1 );
[49]         delta           0.001;
[49]         order           xyz;
[49]     }
[49]     manualCoeffs
[49]     {
[49]         dataFile        "cellDecomposition";
[49]     }
[49] }
[49] 
[49] Selecting decompositionMethod scotch
[50]  Foam::decompositionMethod::New 
[50] {
[50]     numberOfSubdomains 896;
[50]     method          scotch;
[50]     simpleCoeffs
[50]     {
[50]         n               ( 4 1 1 );
[50]         delta           0.001;
[50]     }
[50]     hierarchicalCoeffs
[50]     {
[50]         n               ( 3 2 1 );
[50]         delta           0.001;
[50]         order           xyz;
[50]     }
[50]     manualCoeffs
[50]     {
[50]         dataFile        "cellDecomposition";
[50]     }
[50] }
[50] 
[50] Selecting decompositionMethod scotch
[51]  Foam::decompositionMethod::New 
[51] {
[51]     numberOfSubdomains 896;
[51]     method          scotch;
[51]     simpleCoeffs
[51]     {
[51]         n               ( 4 1 1 );
[51]         delta           0.001;
[51]     }
[51]     hierarchicalCoeffs
[51]     {
[51]         n               ( 3 2 1 );
[51]         delta           0.001;
[51]         order           xyz;
[51]     }
[51]     manualCoeffs
[51]     {
[51]         dataFile        "cellDecomposition";
[51]     }
[51] }
[51] 
[51] Selecting decompositionMethod scotch
[52]  Foam::decompositionMethod::New 
[52] {
[52]     numberOfSubdomains 896;
[52]     method          scotch;
[52]     simpleCoeffs
[52]     {
[52]         n               ( 4 1 1 );
[52]         delta           0.001;
[52]     }
[52]     hierarchicalCoeffs
[52]     {
[52]         n               ( 3 2 1 );
[52]         delta           0.001;
[52]         order           xyz;
[52]     }
[52]     manualCoeffs
[52]     {
[52]         dataFile        "cellDecomposition";
[52]     }
[52] }
[52] 
[52] Selecting decompositionMethod scotch
[53]  Foam::decompositionMethod::New 
[53] {
[53]     numberOfSubdomains 896;
[53]     method          scotch;
[53]     simpleCoeffs
[53]     {
[53]         n               ( 4 1 1 );
[53]         delta           0.001;
[53]     }
[53]     hierarchicalCoeffs
[53]     {
[53]         n               ( 3 2 1 );
[53]         delta           0.001;
[53]         order           xyz;
[53]     }
[53]     manualCoeffs
[53]     {
[53]         dataFile        "cellDecomposition";
[53]     }
[53] }
[53] 
[53] Selecting decompositionMethod scotch
[54]  Foam::decompositionMethod::New 
[54] {
[54]     numberOfSubdomains 896;
[54]     method          scotch;
[54]     simpleCoeffs
[54]     {
[54]         n               ( 4 1 1 );
[54]         delta           0.001;
[54]     }
[54]     hierarchicalCoeffs
[54]     {
[54]         n               ( 3 2 1 );
[54]         delta           0.001;
[54]         order           xyz;
[54]     }
[54]     manualCoeffs
[54]     {
[54]         dataFile        "cellDecomposition";
[54]     }
[54] }
[54] 
[54] Selecting decompositionMethod scotch
[55]  Foam::decompositionMethod::New 
[55] {
[55]     numberOfSubdomains 896;
[55]     method          scotch;
[55]     simpleCoeffs
[55]     {
[55]         n               ( 4 1 1 );
[55]         delta           0.001;
[55]     }
[55]     hierarchicalCoeffs
[55]     {
[55]         n               ( 3 2 1 );
[55]         delta           0.001;
[55]         order           xyz;
[55]     }
[55]     manualCoeffs
[55]     {
[55]         dataFile        "cellDecomposition";
[55]     }
[55] }
[55] 
[55] Selecting decompositionMethod scotch
Layer thickness specified as final layer and expansion ratio.

Refinement phase
----------------

[784]  Foam::decompositionMethod::New 
[784] {
[784]     numberOfSubdomains 896;
[784]     method          scotch;
[784]     simpleCoeffs
[784]     {
[784]         n               ( 4 1 1 );
[784]         delta           0.001;
[784]     }
[784]     hierarchicalCoeffs
[784]     {
[784]         n               ( 3 2 1 );
[784]         delta           0.001;
[784]         order           xyz;
[784]     }
[784]     manualCoeffs
[784]     {
[784]         dataFile        "cellDecomposition";
[784]     }
[784] }
[784] 
[784] Selecting decompositionMethod scotch
[616]  Foam::decompositionMethod::New 
[616] {
[616]     numberOfSubdomains 896;
[616]     method          scotch;
[616]     simpleCoeffs
[616]     {
[616]         n               ( 4 1 1 );
[616]         delta           0.001;
[616]     }
[616]     hierarchicalCoeffs
[616]     {
[616]         n               ( 3 2 1 );
[616]         delta           0.001;
[616]         order           xyz;
[616]     }
[616]     manualCoeffs
[616]     {
[616]         dataFile        "cellDecomposition";
[616]     }
[616] }
[616] 
[616] Selecting decompositionMethod scotch
[504]  Foam::decompositionMethod::New 
[504] {
[504]     numberOfSubdomains 896;
[504]     method          scotch;
[504]     simpleCoeffs
[504]     {
[504]         n               ( 4 1 1 );
[504]         delta           0.001;
[504]     }
[504]     hierarchicalCoeffs
[504]     {
[504]         n               ( 3 2 1 );
[504]         delta           0.001;
[504]         order           xyz;
[504]     }
[504]     manualCoeffs
[504]     {
[504]         dataFile        "cellDecomposition";
[504]     }
[504] }
[504] 
[504] Selecting decompositionMethod scotch
[168]  Foam::decompositionMethod::New 
[168] {
[168]     numberOfSubdomains 896;
[168]     method          scotch;
[168]     simpleCoeffs
[168]     {
[168]         n               ( 4 1 1 );
[168]         delta           0.001;
[168]     }
[168]     hierarchicalCoeffs
[168]     {
[168]         n               ( 3 2 1 );
[168]         delta           0.001;
[168]         order           xyz;
[168]     }
[168]     manualCoeffs
[168]     {
[168]         dataFile        "cellDecomposition";
[168]     }
[168] }
[168] 
[168] Selecting decompositionMethod scotch
[728]  Foam::decompositionMethod::New 
[728] {
[728]     numberOfSubdomains 896;
[728]     method          scotch;
[728]     simpleCoeffs
[728]     {
[728]         n               ( 4 1 1 );
[728]         delta           0.001;
[728]     }
[728]     hierarchicalCoeffs
[728]     {
[728]         n               ( 3 2 1 );
[728]         delta           0.001;
[728]         order           xyz;
[728]     }
[728]     manualCoeffs
[728]     {
[728]         dataFile        "cellDecomposition";
[728]     }
[728] }
[728] 
[728] Selecting decompositionMethod scotch
[224]  Foam::decompositionMethod::New 
[224] {
[224]     numberOfSubdomains 896;
[224]     method          scotch;
[224]     simpleCoeffs
[224]     {
[224]         n               ( 4 1 1 );
[224]         delta           0.001;
[224]     }
[224]     hierarchicalCoeffs
[224]     {
[224]         n               ( 3 2 1 );
[224]         delta           0.001;
[224]         order           xyz;
[224]     }
[224]     manualCoeffs
[224]     {
[224]         dataFile        "cellDecomposition";
[224]     }
[224] }
[224] 
[224] Selecting decompositionMethod scotch
[672]  Foam::decompositionMethod::New 
[672] {
[672]     numberOfSubdomains 896;
[672]     method          scotch;
[672]     simpleCoeffs
[672]     {
[672]         n               ( 4 1 1 );
[672]         delta           0.001;
[672]     }
[672]     hierarchicalCoeffs
[672]     {
[672]         n               ( 3 2 1 );
[672]         delta           0.001;
[672]         order           xyz;
[672]     }
[672]     manualCoeffs
[672]     {
[672]         dataFile        "cellDecomposition";
[672]     }
[672] }
[672] 
[672] Selecting decompositionMethod scotch
[840]  Foam::decompositionMethod::New 
[840] {
[840]     numberOfSubdomains 896;
[840]     method          scotch;
[840]     simpleCoeffs
[840]     {
[840]         n               ( 4 1 1 );
[840]         delta           0.001;
[840]     }
[840]     hierarchicalCoeffs
[840]     {
[840]         n               ( 3 2 1 );
[840]         delta           0.001;
[840]         order           xyz;
[840]     }
[840]     manualCoeffs
[840]     {
[840]         dataFile        "cellDecomposition";
[840]     }
[840] }
[840] 
[840] Selecting decompositionMethod scotch
[448]  Foam::decompositionMethod::New 
[448] {
[448]     numberOfSubdomains 896;
[448]     method          scotch;
[448]     simpleCoeffs
[448]     {
[448]         n               ( 4 1 1 );
[448]         delta           0.001;
[448]     }
[448]     hierarchicalCoeffs
[448]     {
[448]         n               ( 3 2 1 );
[448]         delta           0.001;
[448]         order           xyz;
[448]     }
[448]     manualCoeffs
[448]     {
[448]         dataFile        "cellDecomposition";
[448]     }
[448] }
[448] 
[448] Selecting decompositionMethod scotch
[336]  Foam::decompositionMethod::New 
[336] {
[336]     numberOfSubdomains 896;
[336]     method          scotch;
[336]     simpleCoeffs
[336]     {
[336]         n               ( 4 1 1 );
[336]         delta           0.001;
[336]     }
[336]     hierarchicalCoeffs
[336]     {
[336]         n               ( 3 2 1 );
[336]         delta           0.001;
[336]         order           xyz;
[336]     }
[336]     manualCoeffs
[336]     {
[336]         dataFile        "cellDecomposition";
[336]     }
[336] }
[336] 
[336] Selecting decompositionMethod scotch
[785]  Foam::decompositionMethod::New 
[785] {
[785]     numberOfSubdomains 896;
[785]     method          scotch;
[785]     simpleCoeffs
[785]     {
[785]         n               ( 4 1 1 );
[785]         delta           0.001;
[785]     }
[785]     hierarchicalCoeffs
[785]     {
[785]         n               ( 3 2 1 );
[785]         delta           0.001;
[785]         order           xyz;
[785]     }
[785]     manualCoeffs
[785]     {
[785]         dataFile        "cellDecomposition";
[785]     }
[785] }
[785] 
[785] Selecting decompositionMethod scotch
[617]  Foam::decompositionMethod::New 
[617] {
[617]     numberOfSubdomains 896;
[617]     method          scotch;
[617]     simpleCoeffs
[617]     {
[617]         n               ( 4 1 1 );
[617]         delta           0.001;
[617]     }
[617]     hierarchicalCoeffs
[617]     {
[617]         n               ( 3 2 1 );
[617]         delta           0.001;
[617]         order           xyz;
[617]     }
[617]     manualCoeffs
[617]     {
[617]         dataFile        "cellDecomposition";
[617]     }
[617] }
[617] 
[617] Selecting decompositionMethod scotch
[505]  Foam::decompositionMethod::New 
[505] {
[505]     numberOfSubdomains 896;
[505]     method          scotch;
[505]     simpleCoeffs
[505]     {
[505]         n               ( 4 1 1 );
[505]         delta           0.001;
[505]     }
[505]     hierarchicalCoeffs
[505]     {
[505]         n               ( 3 2 1 );
[505]         delta           0.001;
[505]         order           xyz;
[505]     }
[505]     manualCoeffs
[505]     {
[505]         dataFile        "cellDecomposition";
[505]     }
[505] }
[505] 
[505] Selecting decompositionMethod scotch
[169]  Foam::decompositionMethod::New 
[169] {
[169]     numberOfSubdomains 896;
[169]     method          scotch;
[169]     simpleCoeffs
[169]     {
[169]         n               ( 4 1 1 );
[169]         delta           0.001;
[169]     }
[169]     hierarchicalCoeffs
[169]     {
[169]         n               ( 3 2 1 );
[169]         delta           0.001;
[169]         order           xyz;
[169]     }
[169]     manualCoeffs
[169]     {
[169]         dataFile        "cellDecomposition";
[169]     }
[169] }
[169] 
[169] Selecting decompositionMethod scotch
[729]  Foam::decompositionMethod::New 
[729] {
[729]     numberOfSubdomains 896;
[729]     method          scotch;
[729]     simpleCoeffs
[729]     {
[729]         n               ( 4 1 1 );
[729]         delta           0.001;
[729]     }
[729]     hierarchicalCoeffs
[729]     {
[729]         n               ( 3 2 1 );
[729]         delta           0.001;
[729]         order           xyz;
[729]     }
[729]     manualCoeffs
[729]     {
[729]         dataFile        "cellDecomposition";
[729]     }
[729] }
[729] 
[729] Selecting decompositionMethod scotch
[225]  Foam::decompositionMethod::New 
[225] {
[225]     numberOfSubdomains 896;
[225]     method          scotch;
[225]     simpleCoeffs
[225]     {
[225]         n               ( 4 1 1 );
[225]         delta           0.001;
[225]     }
[225]     hierarchicalCoeffs
[225]     {
[225]         n               ( 3 2 1 );
[225]         delta           0.001;
[225]         order           xyz;
[225]     }
[225]     manualCoeffs
[225]     {
[225]         dataFile        "cellDecomposition";
[225]     }
[225] }
[225] 
[225] Selecting decompositionMethod scotch
[673]  Foam::decompositionMethod::New 
[673] {
[673]     numberOfSubdomains 896;
[673]     method          scotch;
[673]     simpleCoeffs
[673]     {
[673]         n               ( 4 1 1 );
[673]         delta           0.001;
[673]     }
[673]     hierarchicalCoeffs
[673]     {
[673]         n               ( 3 2 1 );
[673]         delta           0.001;
[673]         order           xyz;
[673]     }
[673]     manualCoeffs
[673]     {
[673]         dataFile        "cellDecomposition";
[673]     }
[673] }
[673] 
[673] Selecting decompositionMethod scotch
[841]  Foam::decompositionMethod::New 
[841] {
[841]     numberOfSubdomains 896;
[841]     method          scotch;
[841]     simpleCoeffs
[841]     {
[841]         n               ( 4 1 1 );
[841]         delta           0.001;
[841]     }
[841]     hierarchicalCoeffs
[841]     {
[841]         n               ( 3 2 1 );
[841]         delta           0.001;
[841]         order           xyz;
[841]     }
[841]     manualCoeffs
[841]     {
[841]         dataFile        "cellDecomposition";
[841]     }
[841] }
[841] 
[841] Selecting decompositionMethod scotch
[449]  Foam::decompositionMethod::New 
[449] {
[449]     numberOfSubdomains 896;
[449]     method          scotch;
[449]     simpleCoeffs
[449]     {
[449]         n               ( 4 1 1 );
[449]         delta           0.001;
[449]     }
[449]     hierarchicalCoeffs
[449]     {
[449]         n               ( 3 2 1 );
[449]         delta           0.001;
[449]         order           xyz;
[449]     }
[449]     manualCoeffs
[449]     {
[449]         dataFile        "cellDecomposition";
[449]     }
[449] }
[449] 
[449] Selecting decompositionMethod scotch
[560]  Foam::decompositionMethod::New 
[560] {
[560]     numberOfSubdomains 896;
[560]     method          scotch;
[560]     simpleCoeffs
[560]     {
[560]         n               ( 4 1 1 );
[560]         delta           0.001;
[560]     }
[560]     hierarchicalCoeffs
[560]     {
[560]         n               ( 3 2 1 );
[560]         delta           0.001;
[560]         order           xyz;
[560]     }
[560]     manualCoeffs
[560]     {
[560]         dataFile        "cellDecomposition";
[560]     }
[560] }
[560] 
[560] Selecting decompositionMethod scotch
[786]  Foam::decompositionMethod::New 
[786] {
[786]     numberOfSubdomains 896;
[786]     method          scotch;
[786]     simpleCoeffs
[786]     {
[786]         n               ( 4 1 1 );
[786]         delta           0.001;
[786]     }
[786]     hierarchicalCoeffs
[786]     {
[786]         n               ( 3 2 1 );
[786]         delta           0.001;
[786]         order           xyz;
[786]     }
[786]     manualCoeffs
[786]     {
[786]         dataFile        "cellDecomposition";
[786]     }
[786] }
[786] 
[786] Selecting decompositionMethod scotch
[618]  Foam::decompositionMethod::New 
[618] {
[618]     numberOfSubdomains 896;
[618]     method          scotch;
[618]     simpleCoeffs
[618]     {
[618]         n               ( 4 1 1 );
[618]         delta           0.001;
[618]     }
[618]     hierarchicalCoeffs
[618]     {
[618]         n               ( 3 2 1 );
[618]         delta           0.001;
[618]         order           xyz;
[618]     }
[618]     manualCoeffs
[618]     {
[618]         dataFile        "cellDecomposition";
[618]     }
[618] }
[618] 
[618] Selecting decompositionMethod scotch
[506]  Foam::decompositionMethod::New 
[506] {
[506]     numberOfSubdomains 896;
[506]     method          scotch;
[506]     simpleCoeffs
[506]     {
[506]         n               ( 4 1 1 );
[506]         delta           0.001;
[506]     }
[506]     hierarchicalCoeffs
[506]     {
[506]         n               ( 3 2 1 );
[506]         delta           0.001;
[506]         order           xyz;
[506]     }
[506]     manualCoeffs
[506]     {
[506]         dataFile        "cellDecomposition";
[506]     }
[506] }
[506] 
[506] Selecting decompositionMethod scotch
[170]  Foam::decompositionMethod::New 
[170] {
[170]     numberOfSubdomains 896;
[170]     method          scotch;
[170]     simpleCoeffs
[170]     {
[170]         n               ( 4 1 1 );
[170]         delta           0.001;
[170]     }
[170]     hierarchicalCoeffs
[170]     {
[170]         n               ( 3 2 1 );
[170]         delta           0.001;
[170]         order           xyz;
[170]     }
[170]     manualCoeffs
[170]     {
[170]         dataFile        "cellDecomposition";
[170]     }
[170] }
[170] 
[170] Selecting decompositionMethod scotch
[112]  Foam::decompositionMethod::New 
[112] {
[112]     numberOfSubdomains 896;
[112]     method          scotch;
[112]     simpleCoeffs
[112]     {
[112]         n               ( 4 1 1 );
[112]         delta           0.001;
[112]     }
[112]     hierarchicalCoeffs
[112]     {
[112]         n               ( 3 2 1 );
[112]         delta           0.001;
[112]         order           xyz;
[112]     }
[112]     manualCoeffs
[112]     {
[112]         dataFile        "cellDecomposition";
[112]     }
[112] }
[112] 
[112] Selecting decompositionMethod scotch
[730]  Foam::decompositionMethod::New 
[730] {
[730]     numberOfSubdomains 896;
[730]     method          scotch;
[730]     simpleCoeffs
[730]     {
[730]         n               ( 4 1 1 );
[730]         delta           0.001;
[730]     }
[730]     hierarchicalCoeffs
[730]     {
[730]         n               ( 3 2 1 );
[730]         delta           0.001;
[730]         order           xyz;
[730]     }
[730]     manualCoeffs
[730]     {
[730]         dataFile        "cellDecomposition";
[730]     }
[730] }
[730] 
[730] Selecting decompositionMethod scotch
[226]  Foam::decompositionMethod::New 
[226] {
[226]     numberOfSubdomains 896;
[226]     method          scotch;
[226]     simpleCoeffs
[226]     {
[226]         n               ( 4 1 1 );
[226]         delta           0.001;
[226]     }
[226]     hierarchicalCoeffs
[226]     {
[226]         n               ( 3 2 1 );
[226]         delta           0.001;
[226]         order           xyz;
[226]     }
[226]     manualCoeffs
[226]     {
[226]         dataFile        "cellDecomposition";
[226]     }
[226] }
[226] 
[226] Selecting decompositionMethod scotch
[674]  Foam::decompositionMethod::New 
[674] {
[674]     numberOfSubdomains 896;
[674]     method          scotch;
[674]     simpleCoeffs
[674]     {
[674]         n               ( 4 1 1 );
[674]         delta           0.001;
[674]     }
[674]     hierarchicalCoeffs
[674]     {
[674]         n               ( 3 2 1 );
[674]         delta           0.001;
[674]         order           xyz;
[674]     }
[674]     manualCoeffs
[674]     {
[674]         dataFile        "cellDecomposition";
[674]     }
[674] }
[674] 
[674] Selecting decompositionMethod scotch
[842]  Foam::decompositionMethod::New 
[842] {
[842]     numberOfSubdomains 896;
[842]     method          scotch;
[842]     simpleCoeffs
[842]     {
[842]         n               ( 4 1 1 );
[842]         delta           0.001;
[842]     }
[842]     hierarchicalCoeffs
[842]     {
[842]         n               ( 3 2 1 );
[842]         delta           0.001;
[842]         order           xyz;
[842]     }
[842]     manualCoeffs
[842]     {
[842]         dataFile        "cellDecomposition";
[842]     }
[842] }
[842] 
[842] Selecting decompositionMethod scotch
[450]  Foam::decompositionMethod::New 
[450] {
[450]     numberOfSubdomains 896;
[450]     method          scotch;
[450]     simpleCoeffs
[450]     {
[450]         n               ( 4 1 1 );
[450]         delta           0.001;
[450]     }
[450]     hierarchicalCoeffs
[450]     {
[450]         n               ( 3 2 1 );
[450]         delta           0.001;
[450]         order           xyz;
[450]     }
[450]     manualCoeffs
[450]     {
[450]         dataFile        "cellDecomposition";
[450]     }
[450] }
[450] 
[450] Selecting decompositionMethod scotch
[337]  Foam::decompositionMethod::New 
[337] {
[337]     numberOfSubdomains 896;
[337]     method          scotch;
[337]     simpleCoeffs
[337]     {
[337]         n               ( 4 1 1 );
[337]         delta           0.001;
[337]     }
[337]     hierarchicalCoeffs
[337]     {
[337]         n               ( 3 2 1 );
[337]         delta           0.001;
[337]         order           xyz;
[337]     }
[337]     manualCoeffs
[337]     {
[337]         dataFile        "cellDecomposition";
[337]     }
[337] }
[337] 
[337] Selecting decompositionMethod scotch
[561]  Foam::decompositionMethod::New 
[561] {
[561]     numberOfSubdomains 896;
[561]     method          scotch;
[561]     simpleCoeffs
[561]     {
[561]         n               ( 4 1 1 );
[561]         delta           0.001;
[561]     }
[561]     hierarchicalCoeffs
[561]     {
[561]         n               ( 3 2 1 );
[561]         delta           0.001;
[561]         order           xyz;
[561]     }
[561]     manualCoeffs
[561]     {
[561]         dataFile        "cellDecomposition";
[561]     }
[561] }
[561] 
[561] Selecting decompositionMethod scotch
[56]  Foam::decompositionMethod::New 
[56] {
[56]     numberOfSubdomains 896;
[56]     method          scotch;
[56]     simpleCoeffs
[56]     {
[56]         n               ( 4 1 1 );
[56]         delta           0.001;
[56]     }
[56]     hierarchicalCoeffs
[56]     {
[56]         n               ( 3 2 1 );
[56]         delta           0.001;
[56]         order           xyz;
[56]     }
[56]     manualCoeffs
[56]     {
[56]         dataFile        "cellDecomposition";
[56]     }
[56] }
[56] 
[56] Selecting decompositionMethod scotch
[787]  Foam::decompositionMethod::New 
[787] {
[787]     numberOfSubdomains 896;
[787]     method          scotch;
[787]     simpleCoeffs
[787]     {
[787]         n               ( 4 1 1 );
[787]         delta           0.001;
[787]     }
[787]     hierarchicalCoeffs
[787]     {
[787]         n               ( 3 2 1 );
[787]         delta           0.001;
[787]         order           xyz;
[787]     }
[787]     manualCoeffs
[787]     {
[787]         dataFile        "cellDecomposition";
[787]     }
[787] }
[787] 
[787] Selecting decompositionMethod scotch
[619]  Foam::decompositionMethod::New 
[619] {
[619]     numberOfSubdomains 896;
[619]     method          scotch;
[619]     simpleCoeffs
[619]     {
[619]         n               ( 4 1 1 );
[619]         delta           0.001;
[619]     }
[619]     hierarchicalCoeffs
[619]     {
[619]         n               ( 3 2 1 );
[619]         delta           0.001;
[619]         order           xyz;
[619]     }
[619]     manualCoeffs
[619]     {
[619]         dataFile        "cellDecomposition";
[619]     }
[619] }
[619] 
[619] Selecting decompositionMethod scotch
[507]  Foam::decompositionMethod::New 
[507] {
[507]     numberOfSubdomains 896;
[507]     method          scotch;
[507]     simpleCoeffs
[507]     {
[507]         n               ( 4 1 1 );
[507]         delta           0.001;
[507]     }
[507]     hierarchicalCoeffs
[507]     {
[507]         n               ( 3 2 1 );
[507]         delta           0.001;
[507]         order           xyz;
[507]     }
[507]     manualCoeffs
[507]     {
[507]         dataFile        "cellDecomposition";
[507]     }
[507] }
[507] 
[507] Selecting decompositionMethod scotch
[171]  Foam::decompositionMethod::New 
[171] {
[171]     numberOfSubdomains 896;
[171]     method          scotch;
[171]     simpleCoeffs
[171]     {
[171]         n               ( 4 1 1 );
[171]         delta           0.001;
[171]     }
[171]     hierarchicalCoeffs
[171]     {
[171]         n               ( 3 2 1 );
[171]         delta           0.001;
[171]         order           xyz;
[171]     }
[171]     manualCoeffs
[171]     {
[171]         dataFile        "cellDecomposition";
[171]     }
[171] }
[171] 
[171] Selecting decompositionMethod scotch
[113]  Foam::decompositionMethod::New 
[113] {
[113]     numberOfSubdomains 896;
[113]     method          scotch;
[113]     simpleCoeffs
[113]     {
[113]         n               ( 4 1 1 );
[113]         delta           0.001;
[113]     }
[113]     hierarchicalCoeffs
[113]     {
[113]         n               ( 3 2 1 );
[113]         delta           0.001;
[113]         order           xyz;
[113]     }
[113]     manualCoeffs
[113]     {
[113]         dataFile        "cellDecomposition";
[113]     }
[113] }
[113] 
[113] Selecting decompositionMethod scotch
[731]  Foam::decompositionMethod::New 
[731] {
[731]     numberOfSubdomains 896;
[731]     method          scotch;
[731]     simpleCoeffs
[731]     {
[731]         n               ( 4 1 1 );
[731]         delta           0.001;
[731]     }
[731]     hierarchicalCoeffs
[731]     {
[731]         n               ( 3 2 1 );
[731]         delta           0.001;
[731]         order           xyz;
[731]     }
[731]     manualCoeffs
[731]     {
[731]         dataFile        "cellDecomposition";
[731]     }
[731] }
[731] 
[731] Selecting decompositionMethod scotch
[227]  Foam::decompositionMethod::New 
[227] {
[227]     numberOfSubdomains 896;
[227]     method          scotch;
[227]     simpleCoeffs
[227]     {
[227]         n               ( 4 1 1 );
[227]         delta           0.001;
[227]     }
[227]     hierarchicalCoeffs
[227]     {
[227]         n               ( 3 2 1 );
[227]         delta           0.001;
[227]         order           xyz;
[227]     }
[227]     manualCoeffs
[227]     {
[227]         dataFile        "cellDecomposition";
[227]     }
[227] }
[227] 
[227] Selecting decompositionMethod scotch
[675]  Foam::decompositionMethod::New 
[675] {
[675]     numberOfSubdomains 896;
[675]     method          scotch;
[675]     simpleCoeffs
[675]     {
[675]         n               ( 4 1 1 );
[675]         delta           0.001;
[675]     }
[675]     hierarchicalCoeffs
[675]     {
[675]         n               ( 3 2 1 );
[675]         delta           0.001;
[675]         order           xyz;
[675]     }
[675]     manualCoeffs
[675]     {
[675]         dataFile        "cellDecomposition";
[675]     }
[675] }
[675] 
[675] Selecting decompositionMethod scotch
[843]  Foam::decompositionMethod::New 
[843] {
[843]     numberOfSubdomains 896;
[843]     method          scotch;
[843]     simpleCoeffs
[843]     {
[843]         n               ( 4 1 1 );
[843]         delta           0.001;
[843]     }
[843]     hierarchicalCoeffs
[843]     {
[843]         n               ( 3 2 1 );
[843]         delta           0.001;
[843]         order           xyz;
[843]     }
[843]     manualCoeffs
[843]     {
[843]         dataFile        "cellDecomposition";
[843]     }
[843] }
[843] 
[843] Selecting decompositionMethod scotch
[451]  Foam::decompositionMethod::New 
[451] {
[451]     numberOfSubdomains 896;
[451]     method          scotch;
[451]     simpleCoeffs
[451]     {
[451]         n               ( 4 1 1 );
[451]         delta           0.001;
[451]     }
[451]     hierarchicalCoeffs
[451]     {
[451]         n               ( 3 2 1 );
[451]         delta           0.001;
[451]         order           xyz;
[451]     }
[451]     manualCoeffs
[451]     {
[451]         dataFile        "cellDecomposition";
[451]     }
[451] }
[451] 
[451] Selecting decompositionMethod scotch
[338]  Foam::decompositionMethod::New 
[338] {
[338]     numberOfSubdomains 896;
[338]     method          scotch;
[338]     simpleCoeffs
[338]     {
[338]         n               ( 4 1 1 );
[338]         delta           0.001;
[338]     }
[338]     hierarchicalCoeffs
[338]     {
[338]         n               ( 3 2 1 );
[338]         delta           0.001;
[338]         order           xyz;
[338]     }
[338]     manualCoeffs
[338]     {
[338]         dataFile        "cellDecomposition";
[338]     }
[338] }
[338] 
[338] Selecting decompositionMethod scotch
[562]  Foam::decompositionMethod::New 
[562] {
[562]     numberOfSubdomains 896;
[562]     method          scotch;
[562]     simpleCoeffs
[562]     {
[562]         n               ( 4 1 1 );
[562]         delta           0.001;
[562]     }
[562]     hierarchicalCoeffs
[562]     {
[562]         n               ( 3 2 1 );
[562]         delta           0.001;
[562]         order           xyz;
[562]     }
[562]     manualCoeffs
[562]     {
[562]         dataFile        "cellDecomposition";
[562]     }
[562] }
[562] 
[562] Selecting decompositionMethod scotch
[57]  Foam::decompositionMethod::New 
[57] {
[57]     numberOfSubdomains 896;
[57]     method          scotch;
[57]     simpleCoeffs
[57]     {
[57]         n               ( 4 1 1 );
[57]         delta           0.001;
[57]     }
[57]     hierarchicalCoeffs
[57]     {
[57]         n               ( 3 2 1 );
[57]         delta           0.001;
[57]         order           xyz;
[57]     }
[57]     manualCoeffs
[57]     {
[57]         dataFile        "cellDecomposition";
[57]     }
[57] }
[57] 
[57] Selecting decompositionMethod scotch
[788]  Foam::decompositionMethod::New 
[788] {
[788]     numberOfSubdomains 896;
[788]     method          scotch;
[788]     simpleCoeffs
[788]     {
[788]         n               ( 4 1 1 );
[788]         delta           0.001;
[788]     }
[788]     hierarchicalCoeffs
[788]     {
[788]         n               ( 3 2 1 );
[788]         delta           0.001;
[788]         order           xyz;
[788]     }
[788]     manualCoeffs
[788]     {
[788]         dataFile        "cellDecomposition";
[788]     }
[788] }
[788] 
[788] Selecting decompositionMethod scotch
[620]  Foam::decompositionMethod::New 
[620] {
[620]     numberOfSubdomains 896;
[620]     method          scotch;
[620]     simpleCoeffs
[620]     {
[620]         n               ( 4 1 1 );
[620]         delta           0.001;
[620]     }
[620]     hierarchicalCoeffs
[620]     {
[620]         n               ( 3 2 1 );
[620]         delta           0.001;
[620]         order           xyz;
[620]     }
[620]     manualCoeffs
[620]     {
[620]         dataFile        "cellDecomposition";
[620]     }
[620] }
[620] 
[620] Selecting decompositionMethod scotch
[...]
    faces with volume ratio of neighbour cells < 0.01      : 0
    faces with face twist < 0.02                           : 0
    faces on cells with determinant < 0.001                : 0
displacementMedialAxis : Successfully moved mesh
displacementMedialAxis : Finished moving mesh ...
truncateDisplacement : Unextruded 0 faces due to non-consecutive vertices being extruded.
truncateDisplacement : Unextruded 2 faces due to stringed edges with inconsistent extrusion.
truncateDisplacement : Unextruded 1 faces due to non-consecutive vertices being extruded.
truncateDisplacement : Unextruded 0 faces due to stringed edges with inconsistent extrusion.
truncateDisplacement : Unextruded 0 faces due to non-consecutive vertices being extruded.
truncateDisplacement : Unextruded 0 faces due to stringed edges with inconsistent extrusion.

Setting up information for layer truncation ...

Checking mesh with layer ...
Checking faces in error :
    non-orthogonality > 65  degrees                        : 2
    faces with face pyramid volume < 1e-13                 : 0
    faces with face-decomposition tet quality < 1e-15      : 2
    faces with concavity > 80  degrees                     : 0
    faces with skewness > 4   (internal) or 20  (boundary) : 0
    faces with interpolation weights (0..1)  < 0.02        : 0
    faces with volume ratio of neighbour cells < 0.01      : 0
    faces with face twist < 0.02                           : 0
    faces on cells with determinant < 0.001                : 0
Detected 4 illegal faces (concave, zero area or negative cell pyramid volume)
Extruding 143087 out of 183044 faces (78.1708%). Removed extrusion at 4 faces.
Added 143091 out of 183044 cells (78.173%).


Layer addition iteration 18
--------------------------

Determining displacement for added points according to pointNormal ...
Detected 0 points with point normal pointing through faces.
Reset displacement at 0 points to average of surrounding points.

displacementMedialAxis : Smoothing using Medial Axis ...
displacementMedialAxis : Reducing layer thickness at 536 nodes where thickness to medial axis distance is large 
displacementMedialAxis : Removing isolated regions ...
displacementMedialAxis : Number of isolated points extrusion stopped : 11
displacementMedialAxis : Smoothing field ...
    Iteration 0   residual 4.63932e-05
displacementMedialAxis : Moving mesh ...
displacementMedialAxis : Iteration 0
Moving mesh using displacement scaling : min:1  max:1
Checking faces in error :
    non-orthogonality > 65  degrees                        : 0
    faces with face pyramid volume < 1e-13                 : 0
    faces with face-decomposition tet quality < 1e-15      : 26
    faces with concavity > 80  degrees                     : 0
    faces with skewness > 4   (internal) or 20  (boundary) : 0
    faces with interpolation weights (0..1)  < 0.02        : 0
    faces with volume ratio of neighbour cells < 0.01      : 0
    faces with face twist < 0.02                           : 0
    faces on cells with determinant < 0.001                : 0
displacementMedialAxis : Iteration 1
Moving mesh using displacement scaling : min:0.75  max:1
Checking faces in error :
    non-orthogonality > 65  degrees                        : 0
    faces with face pyramid volume < 1e-13                 : 0
    faces with face-decomposition tet quality < 1e-15      : 9
    faces with concavity > 80  degrees                     : 0
    faces with skewness > 4   (internal) or 20  (boundary) : 0
    faces with interpolation weights (0..1)  < 0.02        : 0
    faces with volume ratio of neighbour cells < 0.01      : 0
    faces with face twist < 0.02                           : 0
    faces on cells with determinant < 0.001                : 0
displacementMedialAxis : Iteration 2
Moving mesh using displacement scaling : min:0.5625  max:1
Checking faces in error :
    non-orthogonality > 65  degrees                        : 0
    faces with face pyramid volume < 1e-13                 : 0
    faces with face-decomposition tet quality < 1e-15      : 5
    faces with concavity > 80  degrees                     : 0
    faces with skewness > 4   (internal) or 20  (boundary) : 0
    faces with interpolation weights (0..1)  < 0.02        : 0
    faces with volume ratio of neighbour cells < 0.01      : 0
    faces with face twist < 0.02                           : 0
    faces on cells with determinant < 0.001                : 0
displacementMedialAxis : Iteration 3
displacementMedialAxis : Displacement scaling for error reduction set to 0.
Moving mesh using displacement scaling : min:0.421875  max:1
Checking faces in error :
    non-orthogonality > 65  degrees                        : 0
    faces with face pyramid volume < 1e-13                 : 0
    faces with face-decomposition tet quality < 1e-15      : 2
    faces with concavity > 80  degrees                     : 0
    faces with skewness > 4   (internal) or 20  (boundary) : 0
    faces with interpolation weights (0..1)  < 0.02        : 0
    faces with volume ratio of neighbour cells < 0.01      : 0
    faces with face twist < 0.02                           : 0
    faces on cells with determinant < 0.001                : 0
displacementMedialAxis : Iteration 4
Moving mesh using displacement scaling : min:0  max:1
Checking faces in error :
    non-orthogonality > 65  degrees                        : 0
    faces with face pyramid volume < 1e-13                 : 0
    faces with face-decomposition tet quality < 1e-15      : 0
    faces with concavity > 80  degrees                     : 0
    faces with skewness > 4   (internal) or 20  (boundary) : 0
    faces with interpolation weights (0..1)  < 0.02        : 0
    faces with volume ratio of neighbour cells < 0.01      : 0
    faces with face twist < 0.02                           : 0
    faces on cells with determinant < 0.001                : 0
displacementMedialAxis : Successfully moved mesh
displacementMedialAxis : Finished moving mesh ...
truncateDisplacement : Unextruded 0 faces due to non-consecutive vertices being extruded.
truncateDisplacement : Unextruded 0 faces due to stringed edges with inconsistent extrusion.

Setting up information for layer truncation ...

Checking mesh with layer ...
Checking faces in error :
    non-orthogonality > 65  degrees                        : 2
    faces with face pyramid volume < 1e-13                 : 0
    faces with face-decomposition tet quality < 1e-15      : 3
    faces with concavity > 80  degrees                     : 0
    faces with skewness > 4   (internal) or 20  (boundary) : 0
    faces with interpolation weights (0..1)  < 0.02        : 0
    faces with volume ratio of neighbour cells < 0.01      : 0
    faces with face twist < 0.02                           : 0
    faces on cells with determinant < 0.001                : 0
Detected 5 illegal faces (concave, zero area or negative cell pyramid volume)
Extruding 143068 out of 183044 faces (78.1604%). Removed extrusion at 4 faces.
Added 143076 out of 183044 cells (78.1648%).


Layer addition iteration 19
--------------------------

Determining displacement for added points according to pointNormal ...
Detected 0 points with point normal pointing through faces.
Reset displacement at 0 points to average of surrounding points.

displacementMedialAxis : Smoothing using Medial Axis ...
displacementMedialAxis : Reducing layer thickness at 536 nodes where thickness to medial axis distance is large 
displacementMedialAxis : Removing isolated regions ...
displacementMedialAxis : Number of isolated points extrusion stopped : 11
displacementMedialAxis : Smoothing field ...
    Iteration 0   residual 4.63698e-05
displacementMedialAxis : Moving mesh ...
displacementMedialAxis : Iteration 0
Moving mesh using displacement scaling : min:1  max:1
Checking faces in error :
    non-orthogonality > 65  degrees                        : 0
    faces with face pyramid volume < 1e-13                 : 0
    faces with face-decomposition tet quality < 1e-15      : 26
    faces with concavity > 80  degrees                     : 0
    faces with skewness > 4   (internal) or 20  (boundary) : 0
    faces with interpolation weights (0..1)  < 0.02        : 0
    faces with volume ratio of neighbour cells < 0.01      : 0
    faces with face twist < 0.02                           : 0
    faces on cells with determinant < 0.001                : 0
displacementMedialAxis : Iteration 1
Moving mesh using displacement scaling : min:0.75  max:1
Checking faces in error :
    non-orthogonality > 65  degrees                        : 0
    faces with face pyramid volume < 1e-13                 : 0
    faces with face-decomposition tet quality < 1e-15      : 9
    faces with concavity > 80  degrees                     : 0
    faces with skewness > 4   (internal) or 20  (boundary) : 0
    faces with interpolation weights (0..1)  < 0.02        : 0
    faces with volume ratio of neighbour cells < 0.01      : 0
    faces with face twist < 0.02                           : 0
    faces on cells with determinant < 0.001                : 0
displacementMedialAxis : Iteration 2
Moving mesh using displacement scaling : min:0.5625  max:1
Checking faces in error :
    non-orthogonality > 65  degrees                        : 0
    faces with face pyramid volume < 1e-13                 : 0
    faces with face-decomposition tet quality < 1e-15      : 5
    faces with concavity > 80  degrees                     : 0
    faces with skewness > 4   (internal) or 20  (boundary) : 0
    faces with interpolation weights (0..1)  < 0.02        : 0
    faces with volume ratio of neighbour cells < 0.01      : 0
    faces with face twist < 0.02                           : 0
    faces on cells with determinant < 0.001                : 0
displacementMedialAxis : Iteration 3
displacementMedialAxis : Displacement scaling for error reduction set to 0.
Moving mesh using displacement scaling : min:0.421875  max:1
Checking faces in error :
    non-orthogonality > 65  degrees                        : 0
    faces with face pyramid volume < 1e-13                 : 0
    faces with face-decomposition tet quality < 1e-15      : 2
    faces with concavity > 80  degrees                     : 0
    faces with skewness > 4   (internal) or 20  (boundary) : 0
    faces with interpolation weights (0..1)  < 0.02        : 0
    faces with volume ratio of neighbour cells < 0.01      : 0
    faces with face twist < 0.02                           : 0
    faces on cells with determinant < 0.001                : 0
displacementMedialAxis : Iteration 4
Moving mesh using displacement scaling : min:0  max:1
Checking faces in error :
    non-orthogonality > 65  degrees                        : 0
    faces with face pyramid volume < 1e-13                 : 0
    faces with face-decomposition tet quality < 1e-15      : 0
    faces with concavity > 80  degrees                     : 0
    faces with skewness > 4   (internal) or 20  (boundary) : 0
    faces with interpolation weights (0..1)  < 0.02        : 0
    faces with volume ratio of neighbour cells < 0.01      : 0
    faces with face twist < 0.02                           : 0
    faces on cells with determinant < 0.001                : 0
displacementMedialAxis : Successfully moved mesh
displacementMedialAxis : Finished moving mesh ...
truncateDisplacement : Unextruded 0 faces due to non-consecutive vertices being extruded.
truncateDisplacement : Unextruded 0 faces due to stringed edges with inconsistent extrusion.

Setting up information for layer truncation ...

Checking mesh with layer ...
Checking faces in error :
    non-orthogonality > 65  degrees                        : 0
    faces with face pyramid volume < 1e-13                 : 0
    faces with face-decomposition tet quality < 1e-15      : 0
    faces with concavity > 80  degrees                     : 0
    faces with skewness > 4   (internal) or 20  (boundary) : 0
    faces with interpolation weights (0..1)  < 0.02        : 0
    faces with volume ratio of neighbour cells < 0.01      : 0
    faces with face twist < 0.02                           : 0
    faces on cells with determinant < 0.001                : 0
Detected 0 illegal faces (concave, zero area or negative cell pyramid volume)
Extruding 143049 out of 183044 faces (78.1501%). Removed extrusion at 0 faces.
Added 143049 out of 183044 cells (78.1501%).
Edge intersection testing:
    Number of edges             : 5922924
    Number of edges to retest   : 0
    Number of intersected edges : 292463

Doing final balancing
---------------------

Writing 143049 added cells to cellSet addedCells
Writing 0 faces inside added layer to faceSet layerFaces

Writing fields with layer information:
    nSurfaceLayers    : actual number of layers
    thickness         : overall layer thickness
    thicknessFraction : overall layer thickness (fraction of desired thickness)


patch                                            faces    layers   overall thickness
                                                                   [m]       [%]
-----                                            -----    ------   ---       ---
lowerWall                                        15844    0.994    0.0145    96.3    
motorBike_frt-fairing:001%1                      21689    0.743    0.00133   56.6    
motorBike_windshield:002%2                       181      0.972    0.00213   91.1    
motorBike_rr-wh-rim:005%5                        574      0.854    0.00106   45.5    
motorBike_rr-wh-rim:010%10                       1381     0.177    0.000273  11.7    
motorBike_fr-wh-rim:011%11                       1778     0.538    0.000579  24.8    
motorBike_fr-wh-brake-disk:012%12                257      0.996    0.00102   43.7    
motorBike_frame:016-shadow%13                    418      0.45     0.00041   17.6    
motorBike_rear-susp:014%14                       3643     0.771    0.00111   47.4    
motorBike_rear-susp:014-shadow%15                2134     0.754    0.00106   45.4    
motorBike_frame:016%16                           253      0.482    0.000419  18      
motorBike_rr-wh-rim:005-shadow%17                315      0.841    0.000931  39.8    
motorBike_rr-wh-chain-hub:022%22                 458      0.493    0.000438  18.7    
motorBike_rearseat%24                            1367     0.883    0.00175   68.6    
motorBike_frt-fairing%25                         2212     0.876    0.00148   62.6    
motorBike_windshield%26                          1481     0.615    0.00112   47.6    
motorBike_headlights%27                          588      0.98     0.00215   91.7    
motorBike_driversseat%28                         1605     0.78     0.0012    51.3    
motorBike_rear-body%29                           7424     0.884    0.00162   66.7    
motorBike_fuel-tank%30                           3247     0.92     0.00192   78.6    
motorBike_exhaust%31                             8461     0.706    0.00133   53.4    
motorBike_rr-wh-rim%32                           4376     0.868    0.00145   57.9    
motorBike_fr-mud-guard%33                        3116     0.54     0.0007    30      
motorBike_fr-wh-rim%34                           2206     0.907    0.00156   66.4    
motorBike_fr-wh-brake-disk%35                    1730     0.773    0.000785  33.5    
motorBike_fr-brake-caliper%36                    573      0.274    0.000221  9.43    
motorBike_fr-wh-tyre%37                          5022     0.729    0.00134   57.3    
motorBike_hbars%38                               2040     0.215    0.000212  9.07    
motorBike_fr-forks%39                            4356     0.719    0.0013    55.6    
motorBike_chain%40                               1791     0.118    8.23e-05  3.51    
motorBike_rr-wh-tyre%41                          4564     0.802    0.00173   59.3    
motorBike_square-dial%42                         20       1        0.00192   81.9    
motorBike_round-dial%43                          45       0.978    0.00101   43.4    
motorBike_dial-holder%44                         343      0.831    0.000769  33.2    
motorBike_rear-susp%45                           7102     0.783    0.000956  40.9    
motorBike_rear-brake-lights%46                   201      0.493    0.00043   18.7    
motorBike_rear-light-bracket%47                  636      0.851    0.00117   50.1    
motorBike_frame%48                               7638     0.79     0.00134   57      
motorBike_rear-mud-guard%49                      2525     0.719    0.00117   50.1    
motorBike_rear-susp-spring-damp%50               459      0.627    0.000761  32.6    
motorBike_fairing-inner-plate%51                 1562     0.825    0.0013    52.3    
motorBike_clutch-housing%52                      3810     0.967    0.00178   75.1    
motorBike_radiator%53                            434      0.21     0.000105  4.47    
motorBike_water-pipe%54                          326      0        0         0       
motorBike_water-pump%55                          264      0.383    0.000328  14.2    
motorBike_engine%56                              8681     0.898    0.00153   64.1    
motorBike_rear-shock-link%57                     100      0        0         0       
motorBike_rear-brake-fluid-pot-bracket%58        151      0.576    0.000552  23.8    
motorBike_rear-brake-fluid-pot%59                199      0.578    0.000349  15      
motorBike_footpeg%60                             346      0.332    0.000164  6.99    
motorBike_rr-wh-chain-hub%61                     466      0.73     0.000673  28.7    
motorBike_rear-brake-caliper%62                  570      0.368    0.000288  12.4    
motorBike_rider-helmet%65                        1798     0.953    0.00232   79.1    
motorBike_rider-visor%66                         536      1        0.00231   96.6    
motorBike_rider-boots%67                         3760     0.959    0.00197   83.6    
motorBike_rider-gloves%68                        1210     0.417    0.000727  31      
motorBike_rider-body%69                          14290    0.936    0.0022    81.3    
motorBike_frame:0%70                             139      0.669    0.00104   44.4    
motorBike_frt-fairing:001-shadow%74              13792    0.724    0.00132   56.2    
motorBike_windshield-shadow%75                   1031     0.579    0.00107   45.9    
motorBike_fr-mud-guard-shadow%81                 2031     0.531    0.000718  30.7    
motorBike_fr-wh-brake-disk-shadow%83             933      0.781    0.00074   31.6    
motorBike_rear-mud-guard-shadow%84               1622     0.692    0.00115   49.1    
motorBike_rear-susp-spring-damp-shadow%85        249      0.707    0.00089   38      
motorBike_radiator-shadow%86                     239      0.23     0.000124  5.3     
motorBike_rear-shock-link-shadow%87              61       0        0         0       
motorBike_rear-brake-fluid-pot-bracket-shadow%88 110      0.691    0.000629  27.3    
motorBike_rr-wh-chain-hub-shadow%89              281      0.651    0.000625  26.7    

Layer mesh : cells:1908124  faces:5922924  points:2129370
Cells per refinement level:
    0	9545
    1	4932
    2	16075
    3	48280
    4	991356
    5	127797
    6	710139
Writing mesh to time constant
Wrote mesh in = 182.55 s.
Layers added in = 182.55 s.
Checking final mesh ...
Checking faces in error :
    non-orthogonality > 65  degrees                        : 0
    faces with face pyramid volume < 1e-13                 : 0
    faces with face-decomposition tet quality < 1e-15      : 0
    faces with concavity > 80  degrees                     : 0
    faces with skewness > 4   (internal) or 20  (boundary) : 0
    faces with interpolation weights (0..1)  < 0.02        : 0
    faces with volume ratio of neighbour cells < 0.01      : 0
    faces with face twist < 0.02                           : 0
    faces on cells with determinant < 0.001                : 0
Finished meshing without any errors
Finished meshing in = 402.77 s.
End

Finalising parallel run
