/*---------------------------------------------------------------------------*\
  =========                 |
  \\      /  F ield         | OpenFOAM: The Open Source CFD Toolbox
   \\    /   O peration     | Website:  https://openfoam.org
    \\  /    A nd           | Version:  7
     \\/     M anipulation  |
\*---------------------------------------------------------------------------*/
Build  : 7
Exec   : snappyHexMesh -parallel -overwrite
Date   : Oct 14 2020
Time   : 17:38:44
Host   : "cpu-p-282"
PID    : 2302
I/O    : uncollated
Case   : /rds/user/hpcbras1/hpc-work/csd3/cclake-roce-gcc9-ompi3-ucx/openfoam/Openfoam_Mbike_csd3_cclake_roce_gcc9_ompi3_ucx_112_56
nProcs : 112
Slaves : 
111
(
"cpu-p-282.2303"
"cpu-p-282.2304"
"cpu-p-282.2305"
"cpu-p-282.2306"
"cpu-p-282.2307"
"cpu-p-282.2308"
"cpu-p-282.2312"
"cpu-p-282.2313"
"cpu-p-282.2314"
"cpu-p-282.2315"
"cpu-p-282.2316"
"cpu-p-282.2317"
"cpu-p-282.2320"
"cpu-p-282.2322"
"cpu-p-282.2323"
"cpu-p-282.2324"
"cpu-p-282.2325"
"cpu-p-282.2326"
"cpu-p-282.2327"
"cpu-p-282.2328"
"cpu-p-282.2329"
"cpu-p-282.2330"
"cpu-p-282.2331"
"cpu-p-282.2332"
"cpu-p-282.2333"
"cpu-p-282.2336"
"cpu-p-282.2339"
"cpu-p-282.2344"
"cpu-p-282.2345"
"cpu-p-282.2346"
"cpu-p-282.2347"
"cpu-p-282.2348"
"cpu-p-282.2349"
"cpu-p-282.2350"
"cpu-p-282.2351"
"cpu-p-282.2352"
"cpu-p-282.2353"
"cpu-p-282.2354"
"cpu-p-282.2355"
"cpu-p-282.2356"
"cpu-p-282.2357"
"cpu-p-282.2358"
"cpu-p-282.2364"
"cpu-p-282.2367"
"cpu-p-282.2371"
"cpu-p-282.2376"
"cpu-p-282.2386"
"cpu-p-282.2389"
"cpu-p-282.2392"
"cpu-p-282.2400"
"cpu-p-282.2413"
"cpu-p-282.2417"
"cpu-p-282.2420"
"cpu-p-282.2425"
"cpu-p-282.2428"
"cpu-p-283.267779"
"cpu-p-283.267780"
"cpu-p-283.267781"
"cpu-p-283.267782"
"cpu-p-283.267783"
"cpu-p-283.267784"
"cpu-p-283.267785"
"cpu-p-283.267786"
"cpu-p-283.267787"
"cpu-p-283.267788"
"cpu-p-283.267789"
"cpu-p-283.267790"
"cpu-p-283.267791"
"cpu-p-283.267792"
"cpu-p-283.267793"
"cpu-p-283.267794"
"cpu-p-283.267795"
"cpu-p-283.267796"
"cpu-p-283.267797"
"cpu-p-283.267798"
"cpu-p-283.267799"
"cpu-p-283.267800"
"cpu-p-283.267801"
"cpu-p-283.267802"
"cpu-p-283.267803"
"cpu-p-283.267804"
"cpu-p-283.267805"
"cpu-p-283.267806"
"cpu-p-283.267807"
"cpu-p-283.267808"
"cpu-p-283.267809"
"cpu-p-283.267810"
"cpu-p-283.267811"
"cpu-p-283.267812"
"cpu-p-283.267813"
"cpu-p-283.267814"
"cpu-p-283.267815"
"cpu-p-283.267816"
"cpu-p-283.267817"
"cpu-p-283.267818"
"cpu-p-283.267819"
"cpu-p-283.267820"
"cpu-p-283.267821"
"cpu-p-283.267822"
"cpu-p-283.267823"
"cpu-p-283.267828"
"cpu-p-283.267837"
"cpu-p-283.267845"
"cpu-p-283.267848"
"cpu-p-283.267850"
"cpu-p-283.267852"
"cpu-p-283.267854"
"cpu-p-283.267855"
"cpu-p-283.267858"
"cpu-p-283.267862"
"cpu-p-283.267864"
)

Pstream initialized with:
    floatTransfer      : 0
    nProcsSimpleSum    : 0
    commsType          : nonBlocking
    polling iterations : 0
sigFpe : Enabling floating point exception trapping (FOAM_SIGFPE).
fileModificationChecking : Monitoring run-time modified files using timeStampMaster (fileModificationSkew 10)
allowSystemOperations : Allowing user-supplied system call operations

// * * * * * * * * * * * * * * * * * * * * * * * * * * * * * * * * * * * * * //
Create time

Create mesh for time = 0

Read mesh in = 0.12 s

Overall mesh bounding box  : (-5 -4 0) (15 4 8)
Relative tolerance         : 1e-06
Absolute matching distance : 2.29783e-05

Reading refinement surfaces.
Read refinement surfaces in = 1.72 s

Reading refinement shells.
Refinement level 4 for all cells inside refinementBox
Read refinement shells in = 0 s

Setting refinement level of surface to be consistent with shells.
Checked shell refinement in = 1.45 s

Reading features.
Read edgeMesh motorBike.eMesh
    points      : 20665
    edges       : 20867
    boundingBox : (-0.241214 -0.337971 -4.232e-05) (1.75115 0.329368 1.21979)

Refinement level according to distance to "motorBike.eMesh" (20665 points, 20867 edges).
    level 6 for all cells within 0 metre.
Read features in = 0.07 s


Determining initial surface intersections
-----------------------------------------

Edge intersection testing:
    Number of edges             : 32256
    Number of edges to retest   : 32256
    Number of intersected edges : 26
Calculated surface intersections in = 0.13 s

Initial mesh : cells:10240  faces:32256  points:11849
Cells per refinement level:
    0	10240

Adding patches for surface regions
----------------------------------

Patch Type                Region                        
----- ----                ------                        
motorBike:

5     wall                motorBike_frt-fairing:001%1   
6     wall                motorBike_windshield:002%2    
7     wall                motorBike_rr-wh-rim:005%5     
8     wall                motorBike_rr-wh-rim:010%10    
9     wall                motorBike_fr-wh-rim:011%11    
10    wall                motorBike_fr-wh-brake-disk:012%12
11    wall                motorBike_frame:016-shadow%13 
12    wall                motorBike_rear-susp:014%14    
13    wall                motorBike_rear-susp:014-shadow%15
14    wall                motorBike_frame:016%16        
15    wall                motorBike_rr-wh-rim:005-shadow%17
16    wall                motorBike_rr-wh-chain-hub:022%22
17    wall                motorBike_rearseat%24         
18    wall                motorBike_frt-fairing%25      
19    wall                motorBike_windshield%26       
20    wall                motorBike_headlights%27       
21    wall                motorBike_driversseat%28      
22    wall                motorBike_rear-body%29        
23    wall                motorBike_fuel-tank%30        
24    wall                motorBike_exhaust%31          
25    wall                motorBike_rr-wh-rim%32        
26    wall                motorBike_fr-mud-guard%33     
27    wall                motorBike_fr-wh-rim%34        
28    wall                motorBike_fr-wh-brake-disk%35 
29    wall                motorBike_fr-brake-caliper%36 
30    wall                motorBike_fr-wh-tyre%37       
31    wall                motorBike_hbars%38            
32    wall                motorBike_fr-forks%39         
33    wall                motorBike_chain%40            
34    wall                motorBike_rr-wh-tyre%41       
35    wall                motorBike_square-dial%42      
36    wall                motorBike_round-dial%43       
37    wall                motorBike_dial-holder%44      
38    wall                motorBike_rear-susp%45        
39    wall                motorBike_rear-brake-lights%46
40    wall                motorBike_rear-light-bracket%47
41    wall                motorBike_frame%48            
42    wall                motorBike_rear-mud-guard%49   
43    wall                motorBike_rear-susp-spring-damp%50
44    wall                motorBike_fairing-inner-plate%51
45    wall                motorBike_clutch-housing%52   
46    wall                motorBike_radiator%53         
47    wall                motorBike_water-pipe%54       
48    wall                motorBike_water-pump%55       
49    wall                motorBike_engine%56           
50    wall                motorBike_rear-shock-link%57  
51    wall                motorBike_rear-brake-fluid-pot-bracket%58
52    wall                motorBike_rear-brake-fluid-pot%59
53    wall                motorBike_footpeg%60          
54    wall                motorBike_rr-wh-chain-hub%61  
55    wall                motorBike_rear-brake-caliper%62
56    wall                motorBike_rider-helmet%65     
57    wall                motorBike_rider-visor%66      
58    wall                motorBike_rider-boots%67      
59    wall                motorBike_rider-gloves%68     
60    wall                motorBike_rider-body%69       
61    wall                motorBike_frame:0%70          
62    wall                motorBike_frt-fairing:001-shadow%74
[1]  Foam::decompositionMethod::New 
[1] {
[1]     numberOfSubdomains 112;
[1]     method          scotch;
[1]     simpleCoeffs
[1]     {
[1]         n               ( 4 1 1 );
[1]         delta           0.001;
[1]     }
[1]     hierarchicalCoeffs
[1]     {
[1]         n               ( 3 2 1 );
[1]         delta           0.001;
[1]         order           xyz;
[1]     }
[1]     manualCoeffs
[1]     {
[1]         dataFile        "cellDecomposition";
[1]     }
[1] }
[1] 
[1] Selecting decompositionMethod scotch
[2]  Foam::decompositionMethod::New 
[2] {
[2]     numberOfSubdomains 112;
[2]     method          scotch;
[2]     simpleCoeffs
[2]     {
[2]         n               ( 4 1 1 );
[2]         delta           0.001;
[2]     }
[2]     hierarchicalCoeffs
[2]     {
[2]         n               ( 3 2 1 );
[2]         delta           0.001;
[2]         order           xyz;
[2]     }
[2]     manualCoeffs
[2]     {
[2]         dataFile        "cellDecomposition";
[2]     }
[2] }
[2] 
[2] Selecting decompositionMethod scotch
[3]  Foam::decompositionMethod::New 
[3] {
[3]     numberOfSubdomains 112;
[3]     method          scotch;
[3]     simpleCoeffs
[3]     {
[3]         n               ( 4 1 1 );
[3]         delta           0.001;
[3]     }
[3]     hierarchicalCoeffs
[3]     {
[3]         n               ( 3 2 1 );
[3]         delta           0.001;
[3]         order           xyz;
[3]     }
[3]     manualCoeffs
[3]     {
[3]         dataFile        "cellDecomposition";
[3]     }
[3] }
[3] 
[3] Selecting decompositionMethod scotch
[4]  Foam::decompositionMethod::New 
[4] {
[4]     numberOfSubdomains 112;
[4]     method          scotch;
[4]     simpleCoeffs
[4]     {
[4]         n               ( 4 1 1 );
[4]         delta           0.001;
[4]     }
[4]     hierarchicalCoeffs
[4]     {
[4]         n               ( 3 2 1 );
[4]         delta           0.001;
[4]         order           xyz;
[4]     }
[4]     manualCoeffs
[4]     {
[4]         dataFile        "cellDecomposition";
[4]     }
[4] }
[4] 
[4] Selecting decompositionMethod scotch
[5]  Foam::decompositionMethod::New 
[5] {
[5]     numberOfSubdomains 112;
[5]     method          scotch;
[5]     simpleCoeffs
[5]     {
[5]         n               ( 4 1 1 );
[5]         delta           0.001;
[5]     }
[5]     hierarchicalCoeffs
[5]     {
[5]         n               ( 3 2 1 );
[5]         delta           0.001;
[5]         order           xyz;
[5]     }
[5]     manualCoeffs
[5]     {
[5]         dataFile        "cellDecomposition";
[5]     }
[5] }
[5] 
[5] Selecting decompositionMethod scotch
[6]  Foam::decompositionMethod::New 
[6] {
[6]     numberOfSubdomains 112;
[6]     method          scotch;
[6]     simpleCoeffs
[6]     {
[6]         n               ( 4 1 1 );
[6]         delta           0.001;
[6]     }
[6]     hierarchicalCoeffs
[6]     {
[6]         n               ( 3 2 1 );
[6]         delta           0.001;
[6]         order           xyz;
[6]     }
[6]     manualCoeffs
[6]     {
[6]         dataFile        "cellDecomposition";
[6]     }
[6] }
[6] 
[6] Selecting decompositionMethod scotch
[7]  Foam::decompositionMethod::New 
[7] {
[7]     numberOfSubdomains 112;
[7]     method          scotch;
[7]     simpleCoeffs
[7]     {
[7]         n               ( 4 1 1 );
[7]         delta           0.001;
[7]     }
[7]     hierarchicalCoeffs
[7]     {
[7]         n               ( 3 2 1 );
[7]         delta           0.001;
[7]         order           xyz;
[7]     }
[7]     manualCoeffs
[7]     {
[7]         dataFile        "cellDecomposition";
[7]     }
[7] }
[7] 
[7] Selecting decompositionMethod scotch
[8]  Foam::decompositionMethod::New 
[8] {
[8]     numberOfSubdomains 112;
[8]     method          scotch;
[8]     simpleCoeffs
[8]     {
[8]         n               ( 4 1 1 );
[8]         delta           0.001;
[8]     }
[8]     hierarchicalCoeffs
[8]     {
[8]         n               ( 3 2 1 );
[8]         delta           0.001;
[8]         order           xyz;
[8]     }
[8]     manualCoeffs
[8]     {
[8]         dataFile        "cellDecomposition";
[8]     }
[8] }
[8] 
[8] Selecting decompositionMethod scotch
[9]  Foam::decompositionMethod::New 
[9] {
[9]     numberOfSubdomains 112;
[9]     method          scotch;
[9]     simpleCoeffs
[9]     {
[9]         n               ( 4 1 1 );
[9]         delta           0.001;
[9]     }
[9]     hierarchicalCoeffs
[9]     {
[9]         n               ( 3 2 1 );
[9]         delta           0.001;
[9]         order           xyz;
[9]     }
[9]     manualCoeffs
[9]     {
[9]         dataFile        "cellDecomposition";
[9]     }
[9] }
[9] 
[9] Selecting decompositionMethod scotch
[10]  Foam::decompositionMethod::New 
[10] {
[10]     numberOfSubdomains 112;
[10]     method          scotch;
[10]     simpleCoeffs
[10]     {
[10]         n               ( 4 1 1 );
[10]         delta           0.001;
[10]     }
[10]     hierarchicalCoeffs
[10]     {
[10]         n               ( 3 2 1 );
[10]         delta           0.001;
[10]         order           xyz;
[10]     }
[10]     manualCoeffs
[10]     {
[10]         dataFile        "cellDecomposition";
[10]     }
[10] }
[10] 
[10] Selecting decompositionMethod scotch
[11]  Foam::decompositionMethod::New 
[11] {
[11]     numberOfSubdomains 112;
[11]     method          scotch;
[11]     simpleCoeffs
[11]     {
[11]         n               ( 4 1 1 );
[11]         delta           0.001;
[11]     }
[11]     hierarchicalCoeffs
[11]     {
[11]         n               ( 3 2 1 );
[11]         delta           0.001;
[11]         order           xyz;
[11]     }
[11]     manualCoeffs
[11]     {
[11]         dataFile        "cellDecomposition";
[11]     }
[11] }
[11] 
[11] Selecting decompositionMethod scotch
[12]  Foam::decompositionMethod::New 
[12] {
[12]     numberOfSubdomains 112;
[12]     method          scotch;
[12]     simpleCoeffs
[12]     {
[12]         n               ( 4 1 1 );
[12]         delta           0.001;
[12]     }
[12]     hierarchicalCoeffs
[12]     {
[12]         n               ( 3 2 1 );
[12]         delta           0.001;
[12]         order           xyz;
[12]     }
[12]     manualCoeffs
[12]     {
[12]         dataFile        "cellDecomposition";
[12]     }
[12] }
[12] 
[12] Selecting decompositionMethod scotch
[13]  Foam::decompositionMethod::New 
[13] {
[13]     numberOfSubdomains 112;
[13]     method          scotch;
[13]     simpleCoeffs
[13]     {
[13]         n               ( 4 1 1 );
[13]         delta           0.001;
[13]     }
[13]     hierarchicalCoeffs
[13]     {
[13]         n               ( 3 2 1 );
[13]         delta           0.001;
[13]         order           xyz;
[13]     }
[13]     manualCoeffs
[13]     {
[13]         dataFile        "cellDecomposition";
[13]     }
[13] }
[13] 
[13] Selecting decompositionMethod scotch
[14]  Foam::decompositionMethod::New 
[14] {
[14]     numberOfSubdomains 112;
[14]     method          scotch;
[14]     simpleCoeffs
[14]     {
[14]         n               ( 4 1 1 );
[14]         delta           0.001;
[14]     }
[14]     hierarchicalCoeffs
[14]     {
[14]         n               ( 3 2 1 );
[14]         delta           0.001;
[14]         order           xyz;
[14]     }
[14]     manualCoeffs
[14]     {
[14]         dataFile        "cellDecomposition";
[14]     }
[14] }
[14] 
[14] Selecting decompositionMethod scotch
[15]  Foam::decompositionMethod::New 
[15] {
[15]     numberOfSubdomains 112;
[15]     method          scotch;
[15]     simpleCoeffs
[15]     {
[15]         n               ( 4 1 1 );
[15]         delta           0.001;
[15]     }
[15]     hierarchicalCoeffs
[15]     {
[15]         n               ( 3 2 1 );
[15]         delta           0.001;
[15]         order           xyz;
[15]     }
[15]     manualCoeffs
[15]     {
[15]         dataFile        "cellDecomposition";
[15]     }
[15] }
[15] 
[15] Selecting decompositionMethod scotch
[16]  Foam::decompositionMethod::New 
[16] {
[16]     numberOfSubdomains 112;
[16]     method          scotch;
[16]     simpleCoeffs
[16]     {
[16]         n               ( 4 1 1 );
[16]         delta           0.001;
[16]     }
[16]     hierarchicalCoeffs
[16]     {
[16]         n               ( 3 2 1 );
[16]         delta           0.001;
[16]         order           xyz;
[16]     }
[16]     manualCoeffs
[16]     {
[16]         dataFile        "cellDecomposition";
[16]     }
[16] }
[16] 
[16] Selecting decompositionMethod scotch
[17]  Foam::decompositionMethod::New 
[17] {
[17]     numberOfSubdomains 112;
[17]     method          scotch;
[17]     simpleCoeffs
[17]     {
[17]         n               ( 4 1 1 );
[17]         delta           0.001;
[17]     }
[17]     hierarchicalCoeffs
[17]     {
[17]         n               ( 3 2 1 );
[17]         delta           0.001;
[17]         order           xyz;
[17]     }
[17]     manualCoeffs
[17]     {
[17]         dataFile        "cellDecomposition";
[17]     }
[17] }
[17] 
[17] Selecting decompositionMethod scotch
[18]  Foam::decompositionMethod::New 
[18] {
[18]     numberOfSubdomains 112;
[18]     method          scotch;
[18]     simpleCoeffs
[18]     {
[18]         n               ( 4 1 1 );
[18]         delta           0.001;
[18]     }
[18]     hierarchicalCoeffs
[18]     {
[18]         n               ( 3 2 1 );
[18]         delta           0.001;
[18]         order           xyz;
[18]     }
[18]     manualCoeffs
[18]     {
[18]         dataFile        "cellDecomposition";
[18]     }
[18] }
[18] 
[18] Selecting decompositionMethod scotch
[19]  Foam::decompositionMethod::New 
[19] {
[19]     numberOfSubdomains 112;
[19]     method          scotch;
[19]     simpleCoeffs
[19]     {
[19]         n               ( 4 1 1 );
[19]         delta           0.001;
[19]     }
[19]     hierarchicalCoeffs
[19]     {
[19]         n               ( 3 2 1 );
[19]         delta           0.001;
[19]         order           xyz;
[19]     }
[19]     manualCoeffs
[19]     {
[19]         dataFile        "cellDecomposition";
[19]     }
[19] }
[19] 
[19] Selecting decompositionMethod scotch
[20]  Foam::decompositionMethod::New 
[20] {
[20]     numberOfSubdomains 112;
[20]     method          scotch;
[20]     simpleCoeffs
[20]     {
[20]         n               ( 4 1 1 );
[20]         delta           0.001;
[20]     }
[20]     hierarchicalCoeffs
[20]     {
[20]         n               ( 3 2 1 );
[20]         delta           0.001;
[20]         order           xyz;
[20]     }
[20]     manualCoeffs
[20]     {
[20]         dataFile        "cellDecomposition";
[20]     }
[20] }
[20] 
[20] Selecting decompositionMethod scotch
[21]  Foam::decompositionMethod::New 
[21] {
[21]     numberOfSubdomains 112;
[21]     method          scotch;
[21]     simpleCoeffs
[21]     {
[21]         n               ( 4 1 1 );
[21]         delta           0.001;
[21]     }
[21]     hierarchicalCoeffs
[21]     {
[21]         n               ( 3 2 1 );
[21]         delta           0.001;
[21]         order           xyz;
[21]     }
[21]     manualCoeffs
[21]     {
[21]         dataFile        "cellDecomposition";
[21]     }
[21] }
[21] 
[21] Selecting decompositionMethod scotch
[22]  Foam::decompositionMethod::New 
[22] {
[22]     numberOfSubdomains 112;
[22]     method          scotch;
[22]     simpleCoeffs
[22]     {
[22]         n               ( 4 1 1 );
[22]         delta           0.001;
[22]     }
[22]     hierarchicalCoeffs
[22]     {
[22]         n               ( 3 2 1 );
[22]         delta           0.001;
[22]         order           xyz;
[22]     }
[22]     manualCoeffs
[22]     {
[22]         dataFile        "cellDecomposition";
[22]     }
[22] }
[22] 
[22] Selecting decompositionMethod scotch
[23]  Foam::decompositionMethod::New 
[23] {
[23]     numberOfSubdomains 112;
[23]     method          scotch;
[23]     simpleCoeffs
[23]     {
[23]         n               ( 4 1 1 );
[23]         delta           0.001;
[23]     }
[23]     hierarchicalCoeffs
[23]     {
[23]         n               ( 3 2 1 );
[23]         delta           0.001;
[23]         order           xyz;
[23]     }
[23]     manualCoeffs
[23]     {
[23]         dataFile        "cellDecomposition";
[23]     }
[23] }
[23] 
[23] Selecting decompositionMethod scotch
[24]  Foam::decompositionMethod::New 
[24] {
[24]     numberOfSubdomains 112;
[24]     method          scotch;
[24]     simpleCoeffs
[24]     {
[24]         n               ( 4 1 1 );
[24]         delta           0.001;
[24]     }
[24]     hierarchicalCoeffs
[24]     {
[24]         n               ( 3 2 1 );
[24]         delta           0.001;
[24]         order           xyz;
[24]     }
[24]     manualCoeffs
[24]     {
[24]         dataFile        "cellDecomposition";
[24]     }
[24] }
[24] 
[24] Selecting decompositionMethod scotch
[25]  Foam::decompositionMethod::New 
[25] {
[25]     numberOfSubdomains 112;
[25]     method          scotch;
[25]     simpleCoeffs
[25]     {
[25]         n               ( 4 1 1 );
[25]         delta           0.001;
[25]     }
[25]     hierarchicalCoeffs
[25]     {
[25]         n               ( 3 2 1 );
[25]         delta           0.001;
[25]         order           xyz;
[25]     }
[25]     manualCoeffs
[25]     {
[25]         dataFile        "cellDecomposition";
[25]     }
[25] }
[25] 
[25] Selecting decompositionMethod scotch
[26]  Foam::decompositionMethod::New 
[26] {
[26]     numberOfSubdomains 112;
[26]     method          scotch;
[26]     simpleCoeffs
[26]     {
[26]         n               ( 4 1 1 );
[26]         delta           0.001;
[26]     }
[26]     hierarchicalCoeffs
[26]     {
[26]         n               ( 3 2 1 );
[26]         delta           0.001;
[26]         order           xyz;
[26]     }
[26]     manualCoeffs
[26]     {
[26]         dataFile        "cellDecomposition";
[26]     }
[26] }
[26] 
[26] Selecting decompositionMethod scotch
[27]  Foam::decompositionMethod::New 
[27] {
[27]     numberOfSubdomains 112;
[27]     method          scotch;
[27]     simpleCoeffs
[27]     {
[27]         n               ( 4 1 1 );
[27]         delta           0.001;
[27]     }
[27]     hierarchicalCoeffs
[27]     {
[27]         n               ( 3 2 1 );
[27]         delta           0.001;
[27]         order           xyz;
[27]     }
[27]     manualCoeffs
[27]     {
[27]         dataFile        "cellDecomposition";
[27]     }
[27] }
[27] 
[27] Selecting decompositionMethod scotch
[28]  Foam::decompositionMethod::New 
[28] {
[28]     numberOfSubdomains 112;
[28]     method          scotch;
[28]     simpleCoeffs
[28]     {
[28]         n               ( 4 1 1 );
[28]         delta           0.001;
[28]     }
[28]     hierarchicalCoeffs
[28]     {
[28]         n               ( 3 2 1 );
[28]         delta           0.001;
[28]         order           xyz;
[28]     }
[28]     manualCoeffs
[28]     {
[28]         dataFile        "cellDecomposition";
[28]     }
[28] }
[28] 
[28] Selecting decompositionMethod scotch
[29]  Foam::decompositionMethod::New 
[29] {
[29]     numberOfSubdomains 112;
[29]     method          scotch;
[29]     simpleCoeffs
[29]     {
[29]         n               ( 4 1 1 );
[29]         delta           0.001;
[29]     }
[29]     hierarchicalCoeffs
[29]     {
[29]         n               ( 3 2 1 );
[29]         delta           0.001;
[29]         order           xyz;
[29]     }
[29]     manualCoeffs
[29]     {
[29]         dataFile        "cellDecomposition";
[29]     }
[29] }
[29] 
[29] Selecting decompositionMethod scotch
[30]  Foam::decompositionMethod::New 
[30] {
[30]     numberOfSubdomains 112;
[30]     method          scotch;
[30]     simpleCoeffs
[30]     {
[30]         n               ( 4 1 1 );
[30]         delta           0.001;
[30]     }
[30]     hierarchicalCoeffs
[30]     {
[30]         n               ( 3 2 1 );
[30]         delta           0.001;
[30]         order           xyz;
[30]     }
[30]     manualCoeffs
[30]     {
[30]         dataFile        "cellDecomposition";
[30]     }
[30] }
[30] 
[30] Selecting decompositionMethod scotch
[31]  Foam::decompositionMethod::New 
[31] {
[31]     numberOfSubdomains 112;
[31]     method          scotch;
[31]     simpleCoeffs
[31]     {
[31]         n               ( 4 1 1 );
[31]         delta           0.001;
[31]     }
[31]     hierarchicalCoeffs
[31]     {
[31]         n               ( 3 2 1 );
[31]         delta           0.001;
[31]         order           xyz;
[31]     }
[31]     manualCoeffs
[31]     {
[31]         dataFile        "cellDecomposition";
[31]     }
[31] }
[31] 
[31] Selecting decompositionMethod scotch
[32]  Foam::decompositionMethod::New 
[32] {
[32]     numberOfSubdomains 112;
[32]     method          scotch;
[32]     simpleCoeffs
[32]     {
[32]         n               ( 4 1 1 );
[32]         delta           0.001;
[32]     }
[32]     hierarchicalCoeffs
[32]     {
[32]         n               ( 3 2 1 );
[32]         delta           0.001;
[32]         order           xyz;
[32]     }
[32]     manualCoeffs
[32]     {
[32]         dataFile        "cellDecomposition";
[32]     }
[32] }
[32] 
[32] Selecting decompositionMethod scotch
[33]  Foam::decompositionMethod::New 
[33] {
[33]     numberOfSubdomains 112;
[33]     method          scotch;
[33]     simpleCoeffs
[33]     {
[33]         n               ( 4 1 1 );
[33]         delta           0.001;
[33]     }
[33]     hierarchicalCoeffs
[33]     {
[33]         n               ( 3 2 1 );
[33]         delta           0.001;
[33]         order           xyz;
[33]     }
[33]     manualCoeffs
[33]     {
[33]         dataFile        "cellDecomposition";
[33]     }
[33] }
[33] 
[33] Selecting decompositionMethod scotch
[34]  Foam::decompositionMethod::New 
[34] {
[34]     numberOfSubdomains 112;
[34]     method          scotch;
[34]     simpleCoeffs
[34]     {
[34]         n               ( 4 1 1 );
[34]         delta           0.001;
[34]     }
[34]     hierarchicalCoeffs
[34]     {
[34]         n               ( 3 2 1 );
[34]         delta           0.001;
[34]         order           xyz;
[34]     }
[34]     manualCoeffs
[34]     {
[34]         dataFile        "cellDecomposition";
[34]     }
[34] }
[34] 
[34] Selecting decompositionMethod scotch
[35]  Foam::decompositionMethod::New 
[35] {
[35]     numberOfSubdomains 112;
[35]     method          scotch;
[35]     simpleCoeffs
[35]     {
[35]         n               ( 4 1 1 );
[35]         delta           0.001;
[35]     }
[35]     hierarchicalCoeffs
[35]     {
[35]         n               ( 3 2 1 );
[35]         delta           0.001;
[35]         order           xyz;
[35]     }
[35]     manualCoeffs
[35]     {
[35]         dataFile        "cellDecomposition";
[35]     }
[35] }
[35] 
[35] Selecting decompositionMethod scotch
[36]  Foam::decompositionMethod::New 
[36] {
[36]     numberOfSubdomains 112;
[36]     method          scotch;
[36]     simpleCoeffs
[36]     {
[36]         n               ( 4 1 1 );
[36]         delta           0.001;
[36]     }
[36]     hierarchicalCoeffs
[36]     {
[36]         n               ( 3 2 1 );
[36]         delta           0.001;
[36]         order           xyz;
[36]     }
[36]     manualCoeffs
[36]     {
[36]         dataFile        "cellDecomposition";
[36]     }
[36] }
[36] 
[36] Selecting decompositionMethod scotch
[37]  Foam::decompositionMethod::New 
[37] {
[37]     numberOfSubdomains 112;
[37]     method          scotch;
[37]     simpleCoeffs
[37]     {
[37]         n               ( 4 1 1 );
[37]         delta           0.001;
[37]     }
[37]     hierarchicalCoeffs
[37]     {
[37]         n               ( 3 2 1 );
[37]         delta           0.001;
[37]         order           xyz;
[37]     }
[37]     manualCoeffs
[37]     {
[37]         dataFile        "cellDecomposition";
[37]     }
[37] }
[37] 
[37] Selecting decompositionMethod scotch
[38]  Foam::decompositionMethod::New 
[38] {
[38]     numberOfSubdomains 112;
[38]     method          scotch;
[38]     simpleCoeffs
[38]     {
[38]         n               ( 4 1 1 );
[38]         delta           0.001;
[38]     }
[38]     hierarchicalCoeffs
[38]     {
[38]         n               ( 3 2 1 );
[38]         delta           0.001;
[38]         order           xyz;
[38]     }
[38]     manualCoeffs
[38]     {
[38]         dataFile        "cellDecomposition";
[38]     }
[38] }
[38] 
[38] Selecting decompositionMethod scotch
[39]  Foam::decompositionMethod::New 
[39] {
[39]     numberOfSubdomains 112;
[39]     method          scotch;
[39]     simpleCoeffs
[39]     {
[39]         n               ( 4 1 1 );
[39]         delta           0.001;
[39]     }
[39]     hierarchicalCoeffs
[39]     {
[39]         n               ( 3 2 1 );
[39]         delta           0.001;
[39]         order           xyz;
[39]     }
[39]     manualCoeffs
[39]     {
[39]         dataFile        "cellDecomposition";
[39]     }
[39] }
[39] 
[39] Selecting decompositionMethod scotch
[40]  Foam::decompositionMethod::New 
[40] {
[40]     numberOfSubdomains 112;
[40]     method          scotch;
[40]     simpleCoeffs
[40]     {
[40]         n               ( 4 1 1 );
[40]         delta           0.001;
[40]     }
[40]     hierarchicalCoeffs
[40]     {
[40]         n               ( 3 2 1 );
[40]         delta           0.001;
[40]         order           xyz;
[40]     }
[40]     manualCoeffs
[40]     {
[40]         dataFile        "cellDecomposition";
[40]     }
[40] }
[40] 
[40] Selecting decompositionMethod scotch
[41]  Foam::decompositionMethod::New 
[41] {
[41]     numberOfSubdomains 112;
[41]     method          scotch;
[41]     simpleCoeffs
[41]     {
[41]         n               ( 4 1 1 );
[41]         delta           0.001;
[41]     }
[41]     hierarchicalCoeffs
[41]     {
[41]         n               ( 3 2 1 );
[41]         delta           0.001;
[41]         order           xyz;
[41]     }
[41]     manualCoeffs
[41]     {
[41]         dataFile        "cellDecomposition";
[41]     }
[41] }
[41] 
[41] Selecting decompositionMethod scotch
[42]  Foam::decompositionMethod::New 
[42] {
[42]     numberOfSubdomains 112;
[42]     method          scotch;
[42]     simpleCoeffs
[42]     {
[42]         n               ( 4 1 1 );
[42]         delta           0.001;
[42]     }
[42]     hierarchicalCoeffs
[42]     {
[42]         n               ( 3 2 1 );
[42]         delta           0.001;
[42]         order           xyz;
[42]     }
[42]     manualCoeffs
[42]     {
[42]         dataFile        "cellDecomposition";
[42]     }
[42] }
[42] 
[42] Selecting decompositionMethod scotch
[43]  Foam::decompositionMethod::New 
[43] {
[43]     numberOfSubdomains 112;
[43]     method          scotch;
[43]     simpleCoeffs
[43]     {
[43]         n               ( 4 1 1 );
[43]         delta           0.001;
[43]     }
[43]     hierarchicalCoeffs
[43]     {
[43]         n               ( 3 2 1 );
[43]         delta           0.001;
[43]         order           xyz;
[43]     }
[43]     manualCoeffs
[43]     {
[43]         dataFile        "cellDecomposition";
[43]     }
[43] }
[43] 
[43] Selecting decompositionMethod scotch
[44]  Foam::decompositionMethod::New 
[44] {
[44]     numberOfSubdomains 112;
[44]     method          scotch;
[44]     simpleCoeffs
[44]     {
[44]         n               ( 4 1 1 );
[44]         delta           0.001;
[44]     }
[44]     hierarchicalCoeffs
[44]     {
[44]         n               ( 3 2 1 );
[44]         delta           0.001;
[44]         order           xyz;
[44]     }
[44]     manualCoeffs
[44]     {
[44]         dataFile        "cellDecomposition";
[44]     }
[44] }
[44] 
[44] Selecting decompositionMethod scotch
[45]  Foam::decompositionMethod::New 
[45] {
[45]     numberOfSubdomains 112;
[45]     method          scotch;
[45]     simpleCoeffs
[45]     {
[45]         n               ( 4 1 1 );
[45]         delta           0.001;
[45]     }
[45]     hierarchicalCoeffs
[45]     {
[45]         n               ( 3 2 1 );
[45]         delta           0.001;
[45]         order           xyz;
[45]     }
[45]     manualCoeffs
[45]     {
[45]         dataFile        "cellDecomposition";
[45]     }
[45] }
[45] 
[45] Selecting decompositionMethod scotch
[46]  Foam::decompositionMethod::New 
[46] {
[46]     numberOfSubdomains 112;
[46]     method          scotch;
[46]     simpleCoeffs
[46]     {
[46]         n               ( 4 1 1 );
[46]         delta           0.001;
[46]     }
[46]     hierarchicalCoeffs
[46]     {
[46]         n               ( 3 2 1 );
[46]         delta           0.001;
[46]         order           xyz;
[46]     }
[46]     manualCoeffs
[46]     {
[46]         dataFile        "cellDecomposition";
[46]     }
[46] }
[46] 
[46] Selecting decompositionMethod scotch
[47]  Foam::decompositionMethod::New 
[47] {
[47]     numberOfSubdomains 112;
[47]     method          scotch;
[47]     simpleCoeffs
[47]     {
[47]         n               ( 4 1 1 );
[47]         delta           0.001;
[47]     }
[47]     hierarchicalCoeffs
[47]     {
[47]         n               ( 3 2 1 );
[47]         delta           0.001;
[47]         order           xyz;
[47]     }
[47]     manualCoeffs
[47]     {
[47]         dataFile        "cellDecomposition";
[47]     }
[47] }
[47] 
[47] Selecting decompositionMethod scotch
[48]  Foam::decompositionMethod::New 
[48] {
[48]     numberOfSubdomains 112;
[48]     method          scotch;
[48]     simpleCoeffs
[48]     {
[48]         n               ( 4 1 1 );
[48]         delta           0.001;
[48]     }
[48]     hierarchicalCoeffs
[48]     {
[48]         n               ( 3 2 1 );
[48]         delta           0.001;
[48]         order           xyz;
[48]     }
[48]     manualCoeffs
[48]     {
[48]         dataFile        "cellDecomposition";
[48]     }
[48] }
[48] 
[48] Selecting decompositionMethod scotch
[49]  Foam::decompositionMethod::New 
[49] {
[49]     numberOfSubdomains 112;
[49]     method          scotch;
[49]     simpleCoeffs
[49]     {
[49]         n               ( 4 1 1 );
[49]         delta           0.001;
[49]     }
[49]     hierarchicalCoeffs
[49]     {
[49]         n               ( 3 2 1 );
[49]         delta           0.001;
[49]         order           xyz;
[49]     }
[49]     manualCoeffs
[49]     {
[49]         dataFile        "cellDecomposition";
[49]     }
[49] }
[49] 
[49] Selecting decompositionMethod scotch
[50]  Foam::decompositionMethod::New 
[50] {
[50]     numberOfSubdomains 112;
[50]     method          scotch;
[50]     simpleCoeffs
[50]     {
[50]         n               ( 4 1 1 );
[50]         delta           0.001;
[50]     }
[50]     hierarchicalCoeffs
[50]     {
[50]         n               ( 3 2 1 );
[50]         delta           0.001;
[50]         order           xyz;
[50]     }
[50]     manualCoeffs
[50]     {
[50]         dataFile        "cellDecomposition";
[50]     }
[50] }
[50] 
[50] Selecting decompositionMethod scotch
[51]  Foam::decompositionMethod::New 
[51] {
[51]     numberOfSubdomains 112;
[51]     method          scotch;
[51]     simpleCoeffs
[51]     {
[51]         n               ( 4 1 1 );
[51]         delta           0.001;
[51]     }
[51]     hierarchicalCoeffs
[51]     {
[51]         n               ( 3 2 1 );
[51]         delta           0.001;
[51]         order           xyz;
[51]     }
[51]     manualCoeffs
[51]     {
[51]         dataFile        "cellDecomposition";
[51]     }
[51] }
[51] 
[51] Selecting decompositionMethod scotch
[52]  Foam::decompositionMethod::New 
[52] {
[52]     numberOfSubdomains 112;
[52]     method          scotch;
[52]     simpleCoeffs
[52]     {
[52]         n               ( 4 1 1 );
[52]         delta           0.001;
[52]     }
[52]     hierarchicalCoeffs
[52]     {
[52]         n               ( 3 2 1 );
[52]         delta           0.001;
[52]         order           xyz;
[52]     }
[52]     manualCoeffs
[52]     {
[52]         dataFile        "cellDecomposition";
[52]     }
[52] }
[52] 
[52] Selecting decompositionMethod scotch
[53]  Foam::decompositionMethod::New 
[53] {
[53]     numberOfSubdomains 112;
[53]     method          scotch;
[53]     simpleCoeffs
[53]     {
[53]         n               ( 4 1 1 );
[53]         delta           0.001;
[53]     }
[53]     hierarchicalCoeffs
[53]     {
[53]         n               ( 3 2 1 );
[53]         delta           0.001;
[53]         order           xyz;
[53]     }
[53]     manualCoeffs
[53]     {
[53]         dataFile        "cellDecomposition";
[53]     }
[53] }
[53] 
[53] Selecting decompositionMethod scotch
[54]  Foam::decompositionMethod::New 
[54] {
[54]     numberOfSubdomains 112;
[54]     method          scotch;
[54]     simpleCoeffs
[54]     {
[54]         n               ( 4 1 1 );
[54]         delta           0.001;
[54]     }
[54]     hierarchicalCoeffs
[54]     {
[54]         n               ( 3 2 1 );
[54]         delta           0.001;
[54]         order           xyz;
[54]     }
[54]     manualCoeffs
[54]     {
[54]         dataFile        "cellDecomposition";
[54]     }
[54] }
[54] 
[54] Selecting decompositionMethod scotch
[55]  Foam::decompositionMethod::New 
[55] {
[55]     numberOfSubdomains 112;
[55]     method          scotch;
[55]     simpleCoeffs
[55]     {
[55]         n               ( 4 1 1 );
[55]         delta           0.001;
[55]     }
[55]     hierarchicalCoeffs
[55]     {
[55]         n               ( 3 2 1 );
[55]         delta           0.001;
[55]         order           xyz;
[55]     }
[55]     manualCoeffs
[55]     {
[55]         dataFile        "cellDecomposition";
[55]     }
[55] }
[55] 
[55] Selecting decompositionMethod scotch
63    wall                motorBike_windshield-shadow%75
64    wall                motorBike_fr-mud-guard-shadow%81
65    wall                motorBike_fr-wh-brake-disk-shadow%83
66    wall                motorBike_rear-mud-guard-shadow%84
67    wall                motorBike_rear-susp-spring-damp-shadow%85
68    wall                motorBike_radiator-shadow%86  
69    wall                motorBike_rear-shock-link-shadow%87
70    wall                motorBike_rear-brake-fluid-pot-bracket-shadow%88
71    wall                motorBike_rr-wh-chain-hub-shadow%89

Added patches in = 0.07 s

[0]  Foam::decompositionMethod::New 
[0] {
[0]     numberOfSubdomains 112;
[0]     method          scotch;
[0]     simpleCoeffs
[0]     {
[0]         n               ( 4 1 1 );
[0]         delta           0.001;
[0]     }
[0]     hierarchicalCoeffs
[0]     {
[0]         n               ( 3 2 1 );
[0]         delta           0.001;
[0]         order           xyz;
[0]     }
[0]     manualCoeffs
[0]     {
[0]         dataFile        "cellDecomposition";
[0]     }
[0] }
[0] 
[0] Selecting decompositionMethod scotch
Layer thickness specified as final layer and expansion ratio.

Refinement phase
----------------

[56]  Foam::decompositionMethod::New 
[56] {
[56]     numberOfSubdomains 112;
[56]     method          scotch;
[56]     simpleCoeffs
[56]     {
[56]         n               ( 4 1 1 );
[56]         delta           0.001;
[56]     }
[56]     hierarchicalCoeffs
[56]     {
[56]         n               ( 3 2 1 );
[56]         delta           0.001;
[56]         order           xyz;
[56]     }
[56]     manualCoeffs
[56]     {
[56]         dataFile        "cellDecomposition";
[56]     }
[56] }
[56] 
[56] Selecting decompositionMethod scotch
[57]  Foam::decompositionMethod::New 
[57] {
[57]     numberOfSubdomains 112;
[57]     method          scotch;
[57]     simpleCoeffs
[57]     {
[57]         n               ( 4 1 1 );
[57]         delta           0.001;
[57]     }
[57]     hierarchicalCoeffs
[57]     {
[57]         n               ( 3 2 1 );
[57]         delta           0.001;
[57]         order           xyz;
[57]     }
[57]     manualCoeffs
[57]     {
[57]         dataFile        "cellDecomposition";
[57]     }
[57] }
[57] 
[57] Selecting decompositionMethod scotch
[58]  Foam::decompositionMethod::New 
[58] {
[58]     numberOfSubdomains 112;
[58]     method          scotch;
[58]     simpleCoeffs
[58]     {
[58]         n               ( 4 1 1 );
[58]         delta           0.001;
[58]     }
[58]     hierarchicalCoeffs
[58]     {
[58]         n               ( 3 2 1 );
[58]         delta           0.001;
[58]         order           xyz;
[58]     }
[58]     manualCoeffs
[58]     {
[58]         dataFile        "cellDecomposition";
[58]     }
[58] }
[58] 
[58] Selecting decompositionMethod scotch
[59]  Foam::decompositionMethod::New 
[59] {
[59]     numberOfSubdomains 112;
[59]     method          scotch;
[59]     simpleCoeffs
[59]     {
[59]         n               ( 4 1 1 );
[59]         delta           0.001;
[59]     }
[59]     hierarchicalCoeffs
[59]     {
[59]         n               ( 3 2 1 );
[59]         delta           0.001;
[59]         order           xyz;
[59]     }
[59]     manualCoeffs
[59]     {
[59]         dataFile        "cellDecomposition";
[59]     }
[59] }
[59] 
[59] Selecting decompositionMethod scotch
[60]  Foam::decompositionMethod::New 
[60] {
[60]     numberOfSubdomains 112;
[60]     method          scotch;
[60]     simpleCoeffs
[60]     {
[60]         n               ( 4 1 1 );
[60]         delta           0.001;
[60]     }
[60]     hierarchicalCoeffs
[60]     {
[60]         n               ( 3 2 1 );
[60]         delta           0.001;
[60]         order           xyz;
[60]     }
[60]     manualCoeffs
[60]     {
[60]         dataFile        "cellDecomposition";
[60]     }
[60] }
[60] 
[60] Selecting decompositionMethod scotch
[61]  Foam::decompositionMethod::New 
[61] {
[61]     numberOfSubdomains 112;
[61]     method          scotch;
[61]     simpleCoeffs
[61]     {
[61]         n               ( 4 1 1 );
[61]         delta           0.001;
[61]     }
[61]     hierarchicalCoeffs
[61]     {
[61]         n               ( 3 2 1 );
[61]         delta           0.001;
[61]         order           xyz;
[61]     }
[61]     manualCoeffs
[61]     {
[61]         dataFile        "cellDecomposition";
[61]     }
[61] }
[61] 
[61] Selecting decompositionMethod scotch
[62]  Foam::decompositionMethod::New 
[62] {
[62]     numberOfSubdomains 112;
[62]     method          scotch;
[62]     simpleCoeffs
[62]     {
[62]         n               ( 4 1 1 );
[62]         delta           0.001;
[62]     }
[62]     hierarchicalCoeffs
[62]     {
[62]         n               ( 3 2 1 );
[62]         delta           0.001;
[62]         order           xyz;
[62]     }
[62]     manualCoeffs
[62]     {
[62]         dataFile        "cellDecomposition";
[62]     }
[62] }
[62] 
[62] Selecting decompositionMethod scotch
[63]  Foam::decompositionMethod::New 
[63] {
[63]     numberOfSubdomains 112;
[63]     method          scotch;
[63]     simpleCoeffs
[63]     {
[63]         n               ( 4 1 1 );
[63]         delta           0.001;
[63]     }
[63]     hierarchicalCoeffs
[63]     {
[63]         n               ( 3 2 1 );
[63]         delta           0.001;
[63]         order           xyz;
[63]     }
[63]     manualCoeffs
[63]     {
[63]         dataFile        "cellDecomposition";
[63]     }
[63] }
[63] 
[63] Selecting decompositionMethod scotch
[64]  Foam::decompositionMethod::New 
[64] {
[64]     numberOfSubdomains 112;
[64]     method          scotch;
[64]     simpleCoeffs
[64]     {
[64]         n               ( 4 1 1 );
[64]         delta           0.001;
[64]     }
[64]     hierarchicalCoeffs
[64]     {
[64]         n               ( 3 2 1 );
[64]         delta           0.001;
[64]         order           xyz;
[64]     }
[64]     manualCoeffs
[64]     {
[64]         dataFile        "cellDecomposition";
[64]     }
[64] }
[64] 
[64] Selecting decompositionMethod scotch
[65]  Foam::decompositionMethod::New 
[65] {
[65]     numberOfSubdomains 112;
[65]     method          scotch;
[65]     simpleCoeffs
[65]     {
[65]         n               ( 4 1 1 );
[65]         delta           0.001;
[65]     }
[65]     hierarchicalCoeffs
[65]     {
[65]         n               ( 3 2 1 );
[65]         delta           0.001;
[65]         order           xyz;
[65]     }
[65]     manualCoeffs
[65]     {
[65]         dataFile        "cellDecomposition";
[65]     }
[65] }
[65] 
[65] Selecting decompositionMethod scotch
[66]  Foam::decompositionMethod::New 
[66] {
[66]     numberOfSubdomains 112;
[66]     method          scotch;
[66]     simpleCoeffs
[66]     {
[66]         n               ( 4 1 1 );
[66]         delta           0.001;
[66]     }
[66]     hierarchicalCoeffs
[66]     {
[66]         n               ( 3 2 1 );
[66]         delta           0.001;
[66]         order           xyz;
[66]     }
[66]     manualCoeffs
[66]     {
[66]         dataFile        "cellDecomposition";
[66]     }
[66] }
[66] 
[66] Selecting decompositionMethod scotch
[67]  Foam::decompositionMethod::New 
[67] {
[67]     numberOfSubdomains 112;
[67]     method          scotch;
[67]     simpleCoeffs
[67]     {
[67]         n               ( 4 1 1 );
[67]         delta           0.001;
[67]     }
[67]     hierarchicalCoeffs
[67]     {
[67]         n               ( 3 2 1 );
[67]         delta           0.001;
[67]         order           xyz;
[67]     }
[67]     manualCoeffs
[67]     {
[67]         dataFile        "cellDecomposition";
[67]     }
[67] }
[67] 
[67] Selecting decompositionMethod scotch
[68]  Foam::decompositionMethod::New 
[68] {
[68]     numberOfSubdomains 112;
[68]     method          scotch;
[68]     simpleCoeffs
[68]     {
[68]         n               ( 4 1 1 );
[68]         delta           0.001;
[68]     }
[68]     hierarchicalCoeffs
[68]     {
[68]         n               ( 3 2 1 );
[68]         delta           0.001;
[68]         order           xyz;
[68]     }
[68]     manualCoeffs
[68]     {
[68]         dataFile        "cellDecomposition";
[68]     }
[68] }
[68] 
[68] Selecting decompositionMethod scotch
[69]  Foam::decompositionMethod::New 
[69] {
[69]     numberOfSubdomains 112;
[69]     method          scotch;
[69]     simpleCoeffs
[69]     {
[69]         n               ( 4 1 1 );
[69]         delta           0.001;
[69]     }
[69]     hierarchicalCoeffs
[69]     {
[69]         n               ( 3 2 1 );
[69]         delta           0.001;
[69]         order           xyz;
[69]     }
[69]     manualCoeffs
[69]     {
[69]         dataFile        "cellDecomposition";
[69]     }
[69] }
[69] 
[69] Selecting decompositionMethod scotch
[70]  Foam::decompositionMethod::New 
[70] {
[70]     numberOfSubdomains 112;
[70]     method          scotch;
[70]     simpleCoeffs
[70]     {
[70]         n               ( 4 1 1 );
[70]         delta           0.001;
[70]     }
[70]     hierarchicalCoeffs
[70]     {
[70]         n               ( 3 2 1 );
[70]         delta           0.001;
[70]         order           xyz;
[70]     }
[70]     manualCoeffs
[70]     {
[70]         dataFile        "cellDecomposition";
[70]     }
[70] }
[70] 
[70] Selecting decompositionMethod scotch
[71]  Foam::decompositionMethod::New 
[71] {
[71]     numberOfSubdomains 112;
[71]     method          scotch;
[71]     simpleCoeffs
[71]     {
[71]         n               ( 4 1 1 );
[71]         delta           0.001;
[71]     }
[71]     hierarchicalCoeffs
[71]     {
[71]         n               ( 3 2 1 );
[71]         delta           0.001;
[71]         order           xyz;
[71]     }
[71]     manualCoeffs
[71]     {
[71]         dataFile        "cellDecomposition";
[71]     }
[71] }
[71] 
[71] Selecting decompositionMethod scotch
[72]  Foam::decompositionMethod::New 
[72] {
[72]     numberOfSubdomains 112;
[72]     method          scotch;
[72]     simpleCoeffs
[72]     {
[72]         n               ( 4 1 1 );
[72]         delta           0.001;
[72]     }
[72]     hierarchicalCoeffs
[72]     {
[72]         n               ( 3 2 1 );
[72]         delta           0.001;
[72]         order           xyz;
[72]     }
[72]     manualCoeffs
[72]     {
[72]         dataFile        "cellDecomposition";
[72]     }
[72] }
[72] 
[72] Selecting decompositionMethod scotch
[73]  Foam::decompositionMethod::New 
[73] {
[73]     numberOfSubdomains 112;
[73]     method          scotch;
[73]     simpleCoeffs
[73]     {
[73]         n               ( 4 1 1 );
[73]         delta           0.001;
[73]     }
[73]     hierarchicalCoeffs
[73]     {
[73]         n               ( 3 2 1 );
[73]         delta           0.001;
[73]         order           xyz;
[73]     }
[73]     manualCoeffs
[73]     {
[73]         dataFile        "cellDecomposition";
[73]     }
[73] }
[73] 
[73] Selecting decompositionMethod scotch
[74]  Foam::decompositionMethod::New 
[74] {
[74]     numberOfSubdomains 112;
[74]     method          scotch;
[74]     simpleCoeffs
[74]     {
[74]         n               ( 4 1 1 );
[74]         delta           0.001;
[74]     }
[74]     hierarchicalCoeffs
[74]     {
[74]         n               ( 3 2 1 );
[74]         delta           0.001;
[74]         order           xyz;
[74]     }
[74]     manualCoeffs
[74]     {
[74]         dataFile        "cellDecomposition";
[74]     }
[74] }
[74] 
[74] Selecting decompositionMethod scotch
[75]  Foam::decompositionMethod::New 
[75] {
[75]     numberOfSubdomains 112;
[75]     method          scotch;
[75]     simpleCoeffs
[75]     {
[75]         n               ( 4 1 1 );
[75]         delta           0.001;
[75]     }
[75]     hierarchicalCoeffs
[75]     {
[75]         n               ( 3 2 1 );
[75]         delta           0.001;
[75]         order           xyz;
[75]     }
[75]     manualCoeffs
[75]     {
[75]         dataFile        "cellDecomposition";
[75]     }
[75] }
[75] 
[75] Selecting decompositionMethod scotch
[76]  Foam::decompositionMethod::New 
[76] {
[76]     numberOfSubdomains 112;
[76]     method          scotch;
[76]     simpleCoeffs
[76]     {
[76]         n               ( 4 1 1 );
[76]         delta           0.001;
[76]     }
[76]     hierarchicalCoeffs
[76]     {
[76]         n               ( 3 2 1 );
[76]         delta           0.001;
[76]         order           xyz;
[76]     }
[76]     manualCoeffs
[76]     {
[76]         dataFile        "cellDecomposition";
[76]     }
[76] }
[76] 
[76] Selecting decompositionMethod scotch
[77]  Foam::decompositionMethod::New 
[77] {
[77]     numberOfSubdomains 112;
[77]     method          scotch;
[77]     simpleCoeffs
[77]     {
[77]         n               ( 4 1 1 );
[77]         delta           0.001;
[77]     }
[77]     hierarchicalCoeffs
[77]     {
[77]         n               ( 3 2 1 );
[77]         delta           0.001;
[77]         order           xyz;
[77]     }
[77]     manualCoeffs
[77]     {
[77]         dataFile        "cellDecomposition";
[77]     }
[77] }
[77] 
[77] Selecting decompositionMethod scotch
[78]  Foam::decompositionMethod::New 
[78] {
[78]     numberOfSubdomains 112;
[78]     method          scotch;
[78]     simpleCoeffs
[78]     {
[78]         n               ( 4 1 1 );
[78]         delta           0.001;
[78]     }
[78]     hierarchicalCoeffs
[78]     {
[78]         n               ( 3 2 1 );
[78]         delta           0.001;
[78]         order           xyz;
[78]     }
[78]     manualCoeffs
[78]     {
[78]         dataFile        "cellDecomposition";
[78]     }
[78] }
[78] 
[78] Selecting decompositionMethod scotch
[79]  Foam::decompositionMethod::New 
[79] {
[79]     numberOfSubdomains 112;
[79]     method          scotch;
[79]     simpleCoeffs
[79]     {
[79]         n               ( 4 1 1 );
[79]         delta           0.001;
[79]     }
[79]     hierarchicalCoeffs
[79]     {
[79]         n               ( 3 2 1 );
[79]         delta           0.001;
[79]         order           xyz;
[79]     }
[79]     manualCoeffs
[79]     {
[79]         dataFile        "cellDecomposition";
[79]     }
[79] }
[79] 
[79] Selecting decompositionMethod scotch
[80]  Foam::decompositionMethod::New 
[80] {
[80]     numberOfSubdomains 112;
[80]     method          scotch;
[80]     simpleCoeffs
[80]     {
[80]         n               ( 4 1 1 );
[80]         delta           0.001;
[80]     }
[80]     hierarchicalCoeffs
[80]     {
[80]         n               ( 3 2 1 );
[80]         delta           0.001;
[80]         order           xyz;
[80]     }
[80]     manualCoeffs
[80]     {
[80]         dataFile        "cellDecomposition";
[80]     }
[80] }
[80] 
[80] Selecting decompositionMethod scotch
[81]  Foam::decompositionMethod::New 
[81] {
[81]     numberOfSubdomains 112;
[81]     method          scotch;
[81]     simpleCoeffs
[81]     {
[81]         n               ( 4 1 1 );
[81]         delta           0.001;
[81]     }
[81]     hierarchicalCoeffs
[81]     {
[81]         n               ( 3 2 1 );
[81]         delta           0.001;
[81]         order           xyz;
[81]     }
[81]     manualCoeffs
[81]     {
[81]         dataFile        "cellDecomposition";
[81]     }
[81] }
[81] 
[81] Selecting decompositionMethod scotch
[82]  Foam::decompositionMethod::New 
[82] {
[82]     numberOfSubdomains 112;
[82]     method          scotch;
[82]     simpleCoeffs
[82]     {
[82]         n               ( 4 1 1 );
[82]         delta           0.001;
[82]     }
[82]     hierarchicalCoeffs
[82]     {
[82]         n               ( 3 2 1 );
[82]         delta           0.001;
[82]         order           xyz;
[82]     }
[82]     manualCoeffs
[82]     {
[82]         dataFile        "cellDecomposition";
[82]     }
[82] }
[82] 
[82] Selecting decompositionMethod scotch
[83]  Foam::decompositionMethod::New 
[83] {
[83]     numberOfSubdomains 112;
[83]     method          scotch;
[83]     simpleCoeffs
[83]     {
[83]         n               ( 4 1 1 );
[83]         delta           0.001;
[83]     }
[83]     hierarchicalCoeffs
[83]     {
[83]         n               ( 3 2 1 );
[83]         delta           0.001;
[83]         order           xyz;
[83]     }
[83]     manualCoeffs
[83]     {
[83]         dataFile        "cellDecomposition";
[83]     }
[83] }
[83] 
[83] Selecting decompositionMethod scotch
[84]  Foam::decompositionMethod::New 
[84] {
[84]     numberOfSubdomains 112;
[84]     method          scotch;
[84]     simpleCoeffs
[84]     {
[84]         n               ( 4 1 1 );
[84]         delta           0.001;
[84]     }
[84]     hierarchicalCoeffs
[84]     {
[84]         n               ( 3 2 1 );
[84]         delta           0.001;
[84]         order           xyz;
[84]     }
[84]     manualCoeffs
[84]     {
[84]         dataFile        "cellDecomposition";
[84]     }
[84] }
[84] 
[84] Selecting decompositionMethod scotch
[85]  Foam::decompositionMethod::New 
[85] {
[85]     numberOfSubdomains 112;
[85]     method          scotch;
[85]     simpleCoeffs
[85]     {
[85]         n               ( 4 1 1 );
[85]         delta           0.001;
[85]     }
[85]     hierarchicalCoeffs
[85]     {
[85]         n               ( 3 2 1 );
[85]         delta           0.001;
[85]         order           xyz;
[85]     }
[85]     manualCoeffs
[85]     {
[85]         dataFile        "cellDecomposition";
[85]     }
[85] }
[85] 
[85] Selecting decompositionMethod scotch
[86]  Foam::decompositionMethod::New 
[86] {
[86]     numberOfSubdomains 112;
[86]     method          scotch;
[86]     simpleCoeffs
[86]     {
[86]         n               ( 4 1 1 );
[86]         delta           0.001;
[86]     }
[86]     hierarchicalCoeffs
[86]     {
[86]         n               ( 3 2 1 );
[86]         delta           0.001;
[86]         order           xyz;
[86]     }
[86]     manualCoeffs
[86]     {
[86]         dataFile        "cellDecomposition";
[86]     }
[86] }
[86] 
[86] Selecting decompositionMethod scotch
[87]  Foam::decompositionMethod::New 
[87] {
[87]     numberOfSubdomains 112;
[87]     method          scotch;
[87]     simpleCoeffs
[87]     {
[87]         n               ( 4 1 1 );
[87]         delta           0.001;
[87]     }
[87]     hierarchicalCoeffs
[87]     {
[87]         n               ( 3 2 1 );
[87]         delta           0.001;
[87]         order           xyz;
[87]     }
[87]     manualCoeffs
[87]     {
[87]         dataFile        "cellDecomposition";
[87]     }
[87] }
[87] 
[87] Selecting decompositionMethod scotch
[88]  Foam::decompositionMethod::New 
[88] {
[88]     numberOfSubdomains 112;
[88]     method          scotch;
[88]     simpleCoeffs
[88]     {
[88]         n               ( 4 1 1 );
[88]         delta           0.001;
[88]     }
[88]     hierarchicalCoeffs
[88]     {
[88]         n               ( 3 2 1 );
[88]         delta           0.001;
[88]         order           xyz;
[88]     }
[88]     manualCoeffs
[88]     {
[88]         dataFile        "cellDecomposition";
[88]     }
[88] }
[88] 
[88] Selecting decompositionMethod scotch
[89]  Foam::decompositionMethod::New 
[89] {
[89]     numberOfSubdomains 112;
[89]     method          scotch;
[89]     simpleCoeffs
[89]     {
[89]         n               ( 4 1 1 );
[89]         delta           0.001;
[89]     }
[89]     hierarchicalCoeffs
[89]     {
[89]         n               ( 3 2 1 );
[89]         delta           0.001;
[89]         order           xyz;
[89]     }
[89]     manualCoeffs
[89]     {
[89]         dataFile        "cellDecomposition";
[89]     }
[89] }
[89] 
[89] Selecting decompositionMethod scotch
[90]  Foam::decompositionMethod::New 
[90] {
[90]     numberOfSubdomains 112;
[90]     method          scotch;
[90]     simpleCoeffs
[90]     {
[90]         n               ( 4 1 1 );
[90]         delta           0.001;
[90]     }
[90]     hierarchicalCoeffs
[90]     {
[90]         n               ( 3 2 1 );
[90]         delta           0.001;
[90]         order           xyz;
[90]     }
[90]     manualCoeffs
[90]     {
[90]         dataFile        "cellDecomposition";
[90]     }
[90] }
[90] 
[90] Selecting decompositionMethod scotch
[91]  Foam::decompositionMethod::New 
[91] {
[91]     numberOfSubdomains 112;
[91]     method          scotch;
[91]     simpleCoeffs
[91]     {
[91]         n               ( 4 1 1 );
[91]         delta           0.001;
[91]     }
[91]     hierarchicalCoeffs
[91]     {
[91]         n               ( 3 2 1 );
[91]         delta           0.001;
[91]         order           xyz;
[91]     }
[91]     manualCoeffs
[91]     {
[91]         dataFile        "cellDecomposition";
[91]     }
[91] }
[91] 
[91] Selecting decompositionMethod scotch
[92]  Foam::decompositionMethod::New 
[92] {
[92]     numberOfSubdomains 112;
[92]     method          scotch;
[92]     simpleCoeffs
[92]     {
[92]         n               ( 4 1 1 );
[92]         delta           0.001;
[92]     }
[92]     hierarchicalCoeffs
[92]     {
[92]         n               ( 3 2 1 );
[92]         delta           0.001;
[92]         order           xyz;
[92]     }
[92]     manualCoeffs
[92]     {
[92]         dataFile        "cellDecomposition";
[92]     }
[92] }
[92] 
[92] Selecting decompositionMethod scotch
[93]  Foam::decompositionMethod::New 
[93] {
[93]     numberOfSubdomains 112;
[93]     method          scotch;
[93]     simpleCoeffs
[93]     {
[93]         n               ( 4 1 1 );
[93]         delta           0.001;
[93]     }
[93]     hierarchicalCoeffs
[93]     {
[93]         n               ( 3 2 1 );
[93]         delta           0.001;
[93]         order           xyz;
[93]     }
[93]     manualCoeffs
[93]     {
[93]         dataFile        "cellDecomposition";
[93]     }
[93] }
[93] 
[93] Selecting decompositionMethod scotch
[94]  Foam::decompositionMethod::New 
[94] {
[94]     numberOfSubdomains 112;
[94]     method          scotch;
[94]     simpleCoeffs
[94]     {
[94]         n               ( 4 1 1 );
[94]         delta           0.001;
[94]     }
[94]     hierarchicalCoeffs
[94]     {
[94]         n               ( 3 2 1 );
[94]         delta           0.001;
[94]         order           xyz;
[94]     }
[94]     manualCoeffs
[94]     {
[94]         dataFile        "cellDecomposition";
[94]     }
[94] }
[94] 
[94] Selecting decompositionMethod scotch
[95]  Foam::decompositionMethod::New 
[95] {
[95]     numberOfSubdomains 112;
[95]     method          scotch;
[95]     simpleCoeffs
[95]     {
[95]         n               ( 4 1 1 );
[95]         delta           0.001;
[95]     }
[95]     hierarchicalCoeffs
[95]     {
[95]         n               ( 3 2 1 );
[95]         delta           0.001;
[95]         order           xyz;
[95]     }
[95]     manualCoeffs
[95]     {
[95]         dataFile        "cellDecomposition";
[95]     }
[95] }
[95] 
[95] Selecting decompositionMethod scotch
[96]  Foam::decompositionMethod::New 
[96] {
[96]     numberOfSubdomains 112;
[96]     method          scotch;
[96]     simpleCoeffs
[96]     {
[96]         n               ( 4 1 1 );
[96]         delta           0.001;
[96]     }
[96]     hierarchicalCoeffs
[96]     {
[96]         n               ( 3 2 1 );
[96]         delta           0.001;
[96]         order           xyz;
[96]     }
[96]     manualCoeffs
[96]     {
[96]         dataFile        "cellDecomposition";
[96]     }
[96] }
[96] 
[96] Selecting decompositionMethod scotch
[97]  Foam::decompositionMethod::New 
[97] {
[97]     numberOfSubdomains 112;
[97]     method          scotch;
[97]     simpleCoeffs
[97]     {
[97]         n               ( 4 1 1 );
[97]         delta           0.001;
[97]     }
[97]     hierarchicalCoeffs
[97]     {
[97]         n               ( 3 2 1 );
[97]         delta           0.001;
[97]         order           xyz;
[97]     }
[97]     manualCoeffs
[97]     {
[97]         dataFile        "cellDecomposition";
[97]     }
[97] }
[97] 
[97] Selecting decompositionMethod scotch
[98]  Foam::decompositionMethod::New 
[98] {
[98]     numberOfSubdomains 112;
[98]     method          scotch;
[98]     simpleCoeffs
[98]     {
[98]         n               ( 4 1 1 );
[98]         delta           0.001;
[98]     }
[98]     hierarchicalCoeffs
[98]     {
[98]         n               ( 3 2 1 );
[98]         delta           0.001;
[98]         order           xyz;
[98]     }
[98]     manualCoeffs
[98]     {
[98]         dataFile        "cellDecomposition";
[98]     }
[98] }
[98] 
[98] Selecting decompositionMethod scotch
[99]  Foam::decompositionMethod::New 
[99] {
[99]     numberOfSubdomains 112;
[99]     method          scotch;
[99]     simpleCoeffs
[99]     {
[99]         n               ( 4 1 1 );
[99]         delta           0.001;
[99]     }
[99]     hierarchicalCoeffs
[99]     {
[99]         n               ( 3 2 1 );
[99]         delta           0.001;
[99]         order           xyz;
[99]     }
[99]     manualCoeffs
[99]     {
[99]         dataFile        "cellDecomposition";
[99]     }
[99] }
[99] 
[99] Selecting decompositionMethod scotch
[100]  Foam::decompositionMethod::New 
[100] {
[100]     numberOfSubdomains 112;
[100]     method          scotch;
[100]     simpleCoeffs
[100]     {
[100]         n               ( 4 1 1 );
[100]         delta           0.001;
[100]     }
[100]     hierarchicalCoeffs
[100]     {
[100]         n               ( 3 2 1 );
[100]         delta           0.001;
[100]         order           xyz;
[100]     }
[100]     manualCoeffs
[100]     {
[100]         dataFile        "cellDecomposition";
[100]     }
[100] }
[100] 
[100] Selecting decompositionMethod scotch
[101]  Foam::decompositionMethod::New 
[101] {
[101]     numberOfSubdomains 112;
[101]     method          scotch;
[101]     simpleCoeffs
[101]     {
[101]         n               ( 4 1 1 );
[101]         delta           0.001;
[101]     }
[101]     hierarchicalCoeffs
[101]     {
[101]         n               ( 3 2 1 );
[101]         delta           0.001;
[101]         order           xyz;
[101]     }
[101]     manualCoeffs
[101]     {
[101]         dataFile        "cellDecomposition";
[101]     }
[101] }
[101] 
[101] Selecting decompositionMethod scotch
[102]  Foam::decompositionMethod::New 
[102] {
[102]     numberOfSubdomains 112;
[102]     method          scotch;
[102]     simpleCoeffs
[102]     {
[102]         n               ( 4 1 1 );
[102]         delta           0.001;
[102]     }
[102]     hierarchicalCoeffs
[102]     {
[102]         n               ( 3 2 1 );
[102]         delta           0.001;
[102]         order           xyz;
[102]     }
[102]     manualCoeffs
[102]     {
[102]         dataFile        "cellDecomposition";
[102]     }
[102] }
[102] 
[102] Selecting decompositionMethod scotch
[103]  Foam::decompositionMethod::New 
[103] {
[103]     numberOfSubdomains 112;
[103]     method          scotch;
[103]     simpleCoeffs
[103]     {
[103]         n               ( 4 1 1 );
[103]         delta           0.001;
[103]     }
[103]     hierarchicalCoeffs
[103]     {
[103]         n               ( 3 2 1 );
[103]         delta           0.001;
[103]         order           xyz;
[103]     }
[103]     manualCoeffs
[103]     {
[103]         dataFile        "cellDecomposition";
[103]     }
[103] }
[103] 
[103] Selecting decompositionMethod scotch
[104]  Foam::decompositionMethod::New 
[104] {
[104]     numberOfSubdomains 112;
[104]     method          scotch;
[104]     simpleCoeffs
[104]     {
[104]         n               ( 4 1 1 );
[104]         delta           0.001;
[104]     }
[104]     hierarchicalCoeffs
[104]     {
[104]         n               ( 3 2 1 );
[104]         delta           0.001;
[104]         order           xyz;
[104]     }
[104]     manualCoeffs
[104]     {
[104]         dataFile        "cellDecomposition";
[104]     }
[104] }
[104] 
[104] Selecting decompositionMethod scotch
[105]  Foam::decompositionMethod::New 
[105] {
[105]     numberOfSubdomains 112;
[105]     method          scotch;
[105]     simpleCoeffs
[105]     {
[105]         n               ( 4 1 1 );
[105]         delta           0.001;
[105]     }
[105]     hierarchicalCoeffs
[105]     {
[105]         n               ( 3 2 1 );
[105]         delta           0.001;
[105]         order           xyz;
[105]     }
[105]     manualCoeffs
[105]     {
[105]         dataFile        "cellDecomposition";
[105]     }
[105] }
[105] 
[105] Selecting decompositionMethod scotch
[106]  Foam::decompositionMethod::New 
[106] {
[106]     numberOfSubdomains 112;
[106]     method          scotch;
[106]     simpleCoeffs
[106]     {
[106]         n               ( 4 1 1 );
[106]         delta           0.001;
[106]     }
[106]     hierarchicalCoeffs
[106]     {
[106]         n               ( 3 2 1 );
[106]         delta           0.001;
[106]         order           xyz;
[106]     }
[106]     manualCoeffs
[106]     {
[106]         dataFile        "cellDecomposition";
[106]     }
[106] }
[106] 
[106] Selecting decompositionMethod scotch
[107]  Foam::decompositionMethod::New 
[107] {
[107]     numberOfSubdomains 112;
[107]     method          scotch;
[107]     simpleCoeffs
[107]     {
[107]         n               ( 4 1 1 );
[107]         delta           0.001;
[107]     }
[107]     hierarchicalCoeffs
[107]     {
[107]         n               ( 3 2 1 );
[107]         delta           0.001;
[107]         order           xyz;
[107]     }
[107]     manualCoeffs
[107]     {
[107]         dataFile        "cellDecomposition";
[107]     }
[107] }
[107] 
[107] Selecting decompositionMethod scotch
[108]  Foam::decompositionMethod::New 
[108] {
[108]     numberOfSubdomains 112;
[108]     method          scotch;
[108]     simpleCoeffs
[108]     {
[108]         n               ( 4 1 1 );
[108]         delta           0.001;
[108]     }
[108]     hierarchicalCoeffs
[108]     {
[108]         n               ( 3 2 1 );
[108]         delta           0.001;
[108]         order           xyz;
[108]     }
[108]     manualCoeffs
[108]     {
[108]         dataFile        "cellDecomposition";
[108]     }
[108] }
[108] 
[108] Selecting decompositionMethod scotch
[109]  Foam::decompositionMethod::New 
[109] {
[109]     numberOfSubdomains 112;
[109]     method          scotch;
[109]     simpleCoeffs
[109]     {
[109]         n               ( 4 1 1 );
[109]         delta           0.001;
[109]     }
[109]     hierarchicalCoeffs
[109]     {
[109]         n               ( 3 2 1 );
[109]         delta           0.001;
[109]         order           xyz;
[109]     }
[109]     manualCoeffs
[109]     {
[109]         dataFile        "cellDecomposition";
[109]     }
[109] }
[109] 
[109] Selecting decompositionMethod scotch
[110]  Foam::decompositionMethod::New 
[110] {
[110]     numberOfSubdomains 112;
[110]     method          scotch;
[110]     simpleCoeffs
[110]     {
[110]         n               ( 4 1 1 );
[110]         delta           0.001;
[110]     }
[110]     hierarchicalCoeffs
[110]     {
[110]         n               ( 3 2 1 );
[110]         delta           0.001;
[110]         order           xyz;
[110]     }
[110]     manualCoeffs
[110]     {
[110]         dataFile        "cellDecomposition";
[110]     }
[110] }
[110] 
[110] Selecting decompositionMethod scotch
[111]  Foam::decompositionMethod::New 
[111] {
[111]     numberOfSubdomains 112;
[111]     method          scotch;
[111]     simpleCoeffs
[111]     {
[111]         n               ( 4 1 1 );
[111]         delta           0.001;
[111]     }
[111]     hierarchicalCoeffs
[111]     {
[111]         n               ( 3 2 1 );
[111]         delta           0.001;
[111]         order           xyz;
[111]     }
[111]     manualCoeffs
[111]     {
[111]         dataFile        "cellDecomposition";
[111]     }
[111] }
[111] 
[111] Selecting decompositionMethod scotch
Found point (3.0001 3.0001 0.43) in cell 20 on processor 61

Feature refinement iteration 0
------------------------------

Marked for refinement due to explicit features             : 26 cells.
Determined cells to refine in = 0.08 s
Selected for feature refinement : 26 cells (out of 10240)
Edge intersection testing:
    Number of edges             : 32895
    Number of edges to retest   : 920
    Number of intersected edges : 127
Refined mesh in = 0.01 s
After refinement feature refinement iteration 0 : cells:10422  faces:32895  points:12135
Cells per refinement level:
    0	10214
    1	208
Balanced mesh in = 0.25 s
After balancing feature refinement iteration 0 : cells:10422  faces:32895  points:12135
Cells per refinement level:
    0	10214
    1	208

Feature refinement iteration 1
------------------------------

Marked for refinement due to explicit features             : 100 cells.
Determined cells to refine in = 0.07 s
Selected for feature refinement : 116 cells (out of 10422)
Edge intersection testing:
    Number of edges             : 35637
    Number of edges to retest   : 3652
    Number of intersected edges : 726
Refined mesh in = 0.03 s
After refinement feature refinement iteration 1 : cells:11234  faces:35637  points:13274
Cells per refinement level:
    0	10198
    1	236
    2	800
Balanced mesh in = 0.3 s
After balancing feature refinement iteration 1 : cells:11234  faces:35637  points:13274
Cells per refinement level:
    0	10198
    1	236
    2	800

Feature refinement iteration 2
------------------------------

Marked for refinement due to explicit features             : 447 cells.
Determined cells to refine in = 0.06 s
Selected for feature refinement : 531 cells (out of 11234)
Edge intersection testing:
    Number of edges             : 47952
    Number of edges to retest   : 16009
    Number of intersected edges : 3115
Refined mesh in = 0.02 s
After refinement feature refinement iteration 2 : cells:14951  faces:47952  points:18169
Cells per refinement level:
    0	10175
    1	359
    2	841
    3	3576
Balanced mesh in = 0.27 s
After balancing feature refinement iteration 2 : cells:14951  faces:47952  points:18169
Cells per refinement level:
    0	10175
    1	359
    2	841
    3	3576

Feature refinement iteration 3
------------------------------

Marked for refinement due to explicit features             : 1726 cells.
Determined cells to refine in = 0.06 s
Selected for feature refinement : 1999 cells (out of 14951)
Edge intersection testing:
    Number of edges             : 95388
    Number of edges to retest   : 62235
    Number of intersected edges : 11403
Refined mesh in = 0.03 s
After refinement feature refinement iteration 3 : cells:28944  faces:95388  points:37754
Cells per refinement level:
    0	10168
    1	380
    2	890
    3	3698
    4	13808
Balanced mesh in = 0.35 s
After balancing feature refinement iteration 3 : cells:28944  faces:95388  points:37754
Cells per refinement level:
    0	10168
    1	380
    2	890
    3	3698
    4	13808

Feature refinement iteration 4
------------------------------

Marked for refinement due to explicit features             : 5267 cells.
Determined cells to refine in = 0.07 s
Selected for feature refinement : 6709 cells (out of 28944)
Edge intersection testing:
    Number of edges             : 257892
    Number of edges to retest   : 222084
    Number of intersected edges : 36494
Refined mesh in = 0.06 s
After refinement feature refinement iteration 4 : cells:75907  faces:257892  points:107773
Cells per refinement level:
    0	10167
    1	371
    2	888
    3	3516
    4	18829
    5	42136
Balanced mesh in = 0.5 s
After balancing feature refinement iteration 4 : cells:75907  faces:257892  points:107773
Cells per refinement level:
    0	10167
    1	371
    2	888
    3	3516
    4	18829
    5	42136

Feature refinement iteration 5
------------------------------

Marked for refinement due to explicit features             : 13633 cells.
Determined cells to refine in = 0.1 s
Selected for feature refinement : 19632 cells (out of 75907)
Edge intersection testing:
    Number of edges             : 739599
    Number of edges to retest   : 688975
    Number of intersected edges : 103926
Refined mesh in = 0.07 s
After refinement feature refinement iteration 5 : cells:213331  faces:739599  points:320459
Cells per refinement level:
    0	10164
    1	378
    2	940
    3	3590
    4	18316
    5	70879
    6	109064
Balanced mesh in = 1.92 s
After balancing feature refinement iteration 5 : cells:213331  faces:739599  points:320459
Cells per refinement level:
    0	10164
    1	378
    2	940
    3	3590
    4	18316
    5	70879
    6	109064

Feature refinement iteration 6
------------------------------

Marked for refinement due to explicit features             : 0 cells.
Determined cells to refine in = 0.12 s
Selected for feature refinement : 0 cells (out of 213331)
Stopping refining since too few cells selected.


Surface refinement iteration 0
------------------------------

Marked for refinement due to surface intersection          : 5609 cells.
Marked for refinement due to curvature/regions             : 15947 cells.
Determined cells to refine in = 0.01 s
Selected for refinement : 22979 cells (out of 213331)
Edge intersection testing:
    Number of edges             : 1251417
    Number of edges to retest   : 968089
    Number of intersected edges : 151208
Refined mesh in = 0.12 s
After refinement surface refinement iteration 0 : cells:374184  faces:1251417  points:506470
Cells per refinement level:
    0	10162
    1	374
    2	1025
    3	3412
    4	18383
    5	104188
    6	236640
Balanced mesh in = 2.85 s
After balancing surface refinement iteration 0 : cells:374184  faces:1251417  points:506470
Cells per refinement level:
    0	10162
    1	374
    2	1025
    3	3412
    4	18383
    5	104188
    6	236640

Surface refinement iteration 1
------------------------------

Marked for refinement due to surface intersection          : 1968 cells.
Marked for refinement due to curvature/regions             : 7051 cells.
Determined cells to refine in = 0.05 s
Selected for refinement : 9667 cells (out of 374184)
Edge intersection testing:
    Number of edges             : 1471731
    Number of edges to retest   : 416879
    Number of intersected edges : 174901
Refined mesh in = 0.1 s
After refinement surface refinement iteration 1 : cells:441853  faces:1471731  points:590945
Cells per refinement level:
    0	10162
    1	370
    2	1029
    3	3403
    4	17896
    5	115945
    6	293048
Balanced mesh in = 3.23 s
After balancing surface refinement iteration 1 : cells:441853  faces:1471731  points:590945
Cells per refinement level:
    0	10162
    1	370
    2	1029
    3	3403
    4	17896
    5	115945
    6	293048

Surface refinement iteration 2
------------------------------

Marked for refinement due to surface intersection          : 301 cells.
Marked for refinement due to curvature/regions             : 1367 cells.
Determined cells to refine in = 0.05 s
Selected for refinement : 1784 cells (out of 441853)
Edge intersection testing:
    Number of edges             : 1512765
    Number of edges to retest   : 92622
    Number of intersected edges : 179209
Refined mesh in = 0.1 s
After refinement surface refinement iteration 2 : cells:454341  faces:1512765  points:606952
Cells per refinement level:
    0	10162
    1	370
    2	1027
    3	3390
    4	17742
    5	117666
    6	303984
Balanced mesh in = 3.2 s
After balancing surface refinement iteration 2 : cells:454341  faces:1512765  points:606952
Cells per refinement level:
    0	10162
    1	370
    2	1027
    3	3390
    4	17742
    5	117666
    6	303984

Surface refinement iteration 3
------------------------------

Marked for refinement due to surface intersection          : 6 cells.
Marked for refinement due to curvature/regions             : 110 cells.
Determined cells to refine in = 0.05 s
Selected for refinement : 135 cells (out of 454341)
Edge intersection testing:
    Number of edges             : 1515771
    Number of edges to retest   : 10610
    Number of intersected edges : 179365
Refined mesh in = 0.07 s
After refinement surface refinement iteration 3 : cells:455286  faces:1515771  points:608049
Cells per refinement level:
    0	10162
    1	370
    2	1027
    3	3386
    4	17753
    5	117724
    6	304864
Skipping balancing since max unbalance 0.0632226 is less than allowable 0.1

Surface refinement iteration 4
------------------------------

Marked for refinement due to surface intersection          : 0 cells.
Marked for refinement due to curvature/regions             : 7 cells.
Determined cells to refine in = 0.02 s
Selected for refinement : 8 cells (out of 455286)
Edge intersection testing:
    Number of edges             : 1515933
    Number of edges to retest   : 710
    Number of intersected edges : 179376
Refined mesh in = 0.06 s
After refinement surface refinement iteration 4 : cells:455342  faces:1515933  points:608095
Cells per refinement level:
    0	10162
    1	370
    2	1027
    3	3386
    4	17752
    5	117725
    6	304920
Skipping balancing since max unbalance 0.0632226 is less than allowable 0.1

Surface refinement iteration 5
------------------------------

Marked for refinement due to surface intersection          : 0 cells.
Marked for refinement due to curvature/regions             : 2 cells.
Determined cells to refine in = 0.02 s
Selected for refinement : 2 cells (out of 455342)
Edge intersection testing:
    Number of edges             : 1515975
    Number of edges to retest   : 182
    Number of intersected edges : 179379
Refined mesh in = 0.07 s
After refinement surface refinement iteration 5 : cells:455356  faces:1515975  points:608109
Cells per refinement level:
    0	10162
    1	370
    2	1027
    3	3386
    4	17752
    5	117723
    6	304936
Skipping balancing since max unbalance 0.0632226 is less than allowable 0.1

Surface refinement iteration 6
------------------------------

Marked for refinement due to surface intersection          : 0 cells.
Marked for refinement due to curvature/regions             : 0 cells.
Determined cells to refine in = 0.03 s
Selected for refinement : 0 cells (out of 455356)
Stopping refining since too few cells selected.


Removing mesh beyond surface intersections
------------------------------------------

Found point (3.0001 3.0001 0.43) in global region 0 out of 28 regions.
Keeping all cells in region 0 containing point (3.0001 3.0001 0.43)
Selected for keeping : 422769 cells.
Edge intersection testing:
    Number of edges             : 1441313
    Number of edges to retest   : 73175
    Number of intersected edges : 179380

Shell refinement iteration 0
----------------------------

Marked for refinement due to distance to explicit features : 0 cells.
Marked for refinement due to refinement shells             : 4703 cells.
[...]
    faces with concavity > 80  degrees                     : 0
    faces with skewness > 4   (internal) or 20  (boundary) : 0
    faces with interpolation weights (0..1)  < 0.02        : 0
    faces with volume ratio of neighbour cells < 0.01      : 0
    faces with face twist < 0.02                           : 0
    faces on cells with determinant < 0.001                : 0
displacementMedialAxis : Successfully moved mesh
displacementMedialAxis : Finished moving mesh ...
truncateDisplacement : Unextruded 0 faces due to non-consecutive vertices being extruded.
truncateDisplacement : Unextruded 0 faces due to stringed edges with inconsistent extrusion.

Setting up information for layer truncation ...

Checking mesh with layer ...
Checking faces in error :
    non-orthogonality > 65  degrees                        : 2
    faces with face pyramid volume < 1e-13                 : 0
    faces with face-decomposition tet quality < 1e-15      : 3
    faces with concavity > 80  degrees                     : 0
    faces with skewness > 4   (internal) or 20  (boundary) : 0
    faces with interpolation weights (0..1)  < 0.02        : 0
    faces with volume ratio of neighbour cells < 0.01      : 0
    faces with face twist < 0.02                           : 0
    faces on cells with determinant < 0.001                : 0
Detected 5 illegal faces (concave, zero area or negative cell pyramid volume)
Extruding 140218 out of 183120 faces (76.5716%). Removed extrusion at 4 faces.
Added 140224 out of 183120 cells (76.5749%).


Layer addition iteration 26
--------------------------

Determining displacement for added points according to pointNormal ...
Detected 0 points with point normal pointing through faces.
Reset displacement at 0 points to average of surrounding points.

displacementMedialAxis : Smoothing using Medial Axis ...
displacementMedialAxis : Reducing layer thickness at 507 nodes where thickness to medial axis distance is large 
displacementMedialAxis : Removing isolated regions ...
displacementMedialAxis : Number of isolated points extrusion stopped : 7
displacementMedialAxis : Smoothing field ...
    Iteration 0   residual 4.64155e-05
displacementMedialAxis : Moving mesh ...
displacementMedialAxis : Iteration 0
Moving mesh using displacement scaling : min:1  max:1
Checking faces in error :
    non-orthogonality > 65  degrees                        : 1
    faces with face pyramid volume < 1e-13                 : 0
    faces with face-decomposition tet quality < 1e-15      : 16
    faces with concavity > 80  degrees                     : 0
    faces with skewness > 4   (internal) or 20  (boundary) : 0
    faces with interpolation weights (0..1)  < 0.02        : 0
    faces with volume ratio of neighbour cells < 0.01      : 0
    faces with face twist < 0.02                           : 1
    faces on cells with determinant < 0.001                : 0
displacementMedialAxis : Iteration 1
Moving mesh using displacement scaling : min:0.75  max:1
Checking faces in error :
    non-orthogonality > 65  degrees                        : 1
    faces with face pyramid volume < 1e-13                 : 0
    faces with face-decomposition tet quality < 1e-15      : 7
    faces with concavity > 80  degrees                     : 0
    faces with skewness > 4   (internal) or 20  (boundary) : 0
    faces with interpolation weights (0..1)  < 0.02        : 0
    faces with volume ratio of neighbour cells < 0.01      : 0
    faces with face twist < 0.02                           : 0
    faces on cells with determinant < 0.001                : 0
displacementMedialAxis : Iteration 2
Moving mesh using displacement scaling : min:0.5625  max:1
Checking faces in error :
    non-orthogonality > 65  degrees                        : 0
    faces with face pyramid volume < 1e-13                 : 0
    faces with face-decomposition tet quality < 1e-15      : 1
    faces with concavity > 80  degrees                     : 0
    faces with skewness > 4   (internal) or 20  (boundary) : 0
    faces with interpolation weights (0..1)  < 0.02        : 0
    faces with volume ratio of neighbour cells < 0.01      : 0
    faces with face twist < 0.02                           : 0
    faces on cells with determinant < 0.001                : 0
displacementMedialAxis : Iteration 3
displacementMedialAxis : Displacement scaling for error reduction set to 0.
Moving mesh using displacement scaling : min:0.421875  max:1
Checking faces in error :
    non-orthogonality > 65  degrees                        : 0
    faces with face pyramid volume < 1e-13                 : 0
    faces with face-decomposition tet quality < 1e-15      : 1
    faces with concavity > 80  degrees                     : 0
    faces with skewness > 4   (internal) or 20  (boundary) : 0
    faces with interpolation weights (0..1)  < 0.02        : 0
    faces with volume ratio of neighbour cells < 0.01      : 0
    faces with face twist < 0.02                           : 0
    faces on cells with determinant < 0.001                : 0
displacementMedialAxis : Iteration 4
Moving mesh using displacement scaling : min:0  max:1
Checking faces in error :
    non-orthogonality > 65  degrees                        : 0
    faces with face pyramid volume < 1e-13                 : 0
    faces with face-decomposition tet quality < 1e-15      : 0
    faces with concavity > 80  degrees                     : 0
    faces with skewness > 4   (internal) or 20  (boundary) : 0
    faces with interpolation weights (0..1)  < 0.02        : 0
    faces with volume ratio of neighbour cells < 0.01      : 0
    faces with face twist < 0.02                           : 0
    faces on cells with determinant < 0.001                : 0
displacementMedialAxis : Successfully moved mesh
displacementMedialAxis : Finished moving mesh ...
truncateDisplacement : Unextruded 0 faces due to non-consecutive vertices being extruded.
truncateDisplacement : Unextruded 1 faces due to stringed edges with inconsistent extrusion.
truncateDisplacement : Unextruded 0 faces due to non-consecutive vertices being extruded.
truncateDisplacement : Unextruded 0 faces due to stringed edges with inconsistent extrusion.

Setting up information for layer truncation ...

Checking mesh with layer ...
Checking faces in error :
    non-orthogonality > 65  degrees                        : 1
    faces with face pyramid volume < 1e-13                 : 0
    faces with face-decomposition tet quality < 1e-15      : 1
    faces with concavity > 80  degrees                     : 0
    faces with skewness > 4   (internal) or 20  (boundary) : 0
    faces with interpolation weights (0..1)  < 0.02        : 0
    faces with volume ratio of neighbour cells < 0.01      : 0
    faces with face twist < 0.02                           : 0
    faces on cells with determinant < 0.001                : 0
Detected 2 illegal faces (concave, zero area or negative cell pyramid volume)
Extruding 140209 out of 183120 faces (76.5667%). Removed extrusion at 2 faces.
Added 140211 out of 183120 cells (76.5678%).


Layer addition iteration 27
--------------------------

Determining displacement for added points according to pointNormal ...
Detected 0 points with point normal pointing through faces.
Reset displacement at 0 points to average of surrounding points.

displacementMedialAxis : Smoothing using Medial Axis ...
displacementMedialAxis : Reducing layer thickness at 507 nodes where thickness to medial axis distance is large 
displacementMedialAxis : Removing isolated regions ...
displacementMedialAxis : Number of isolated points extrusion stopped : 3
displacementMedialAxis : Smoothing field ...
    Iteration 0   residual 4.64252e-05
displacementMedialAxis : Moving mesh ...
displacementMedialAxis : Iteration 0
Moving mesh using displacement scaling : min:1  max:1
Checking faces in error :
    non-orthogonality > 65  degrees                        : 1
    faces with face pyramid volume < 1e-13                 : 0
    faces with face-decomposition tet quality < 1e-15      : 16
    faces with concavity > 80  degrees                     : 0
    faces with skewness > 4   (internal) or 20  (boundary) : 0
    faces with interpolation weights (0..1)  < 0.02        : 0
    faces with volume ratio of neighbour cells < 0.01      : 0
    faces with face twist < 0.02                           : 1
    faces on cells with determinant < 0.001                : 0
displacementMedialAxis : Iteration 1
Moving mesh using displacement scaling : min:0.75  max:1
Checking faces in error :
    non-orthogonality > 65  degrees                        : 1
    faces with face pyramid volume < 1e-13                 : 0
    faces with face-decomposition tet quality < 1e-15      : 7
    faces with concavity > 80  degrees                     : 0
    faces with skewness > 4   (internal) or 20  (boundary) : 0
    faces with interpolation weights (0..1)  < 0.02        : 0
    faces with volume ratio of neighbour cells < 0.01      : 0
    faces with face twist < 0.02                           : 0
    faces on cells with determinant < 0.001                : 0
displacementMedialAxis : Iteration 2
Moving mesh using displacement scaling : min:0.5625  max:1
Checking faces in error :
    non-orthogonality > 65  degrees                        : 0
    faces with face pyramid volume < 1e-13                 : 0
    faces with face-decomposition tet quality < 1e-15      : 1
    faces with concavity > 80  degrees                     : 0
    faces with skewness > 4   (internal) or 20  (boundary) : 0
    faces with interpolation weights (0..1)  < 0.02        : 0
    faces with volume ratio of neighbour cells < 0.01      : 0
    faces with face twist < 0.02                           : 0
    faces on cells with determinant < 0.001                : 0
displacementMedialAxis : Iteration 3
displacementMedialAxis : Displacement scaling for error reduction set to 0.
Moving mesh using displacement scaling : min:0.421875  max:1
Checking faces in error :
    non-orthogonality > 65  degrees                        : 0
    faces with face pyramid volume < 1e-13                 : 0
    faces with face-decomposition tet quality < 1e-15      : 1
    faces with concavity > 80  degrees                     : 0
    faces with skewness > 4   (internal) or 20  (boundary) : 0
    faces with interpolation weights (0..1)  < 0.02        : 0
    faces with volume ratio of neighbour cells < 0.01      : 0
    faces with face twist < 0.02                           : 0
    faces on cells with determinant < 0.001                : 0
displacementMedialAxis : Iteration 4
Moving mesh using displacement scaling : min:0  max:1
Checking faces in error :
    non-orthogonality > 65  degrees                        : 0
    faces with face pyramid volume < 1e-13                 : 0
    faces with face-decomposition tet quality < 1e-15      : 0
    faces with concavity > 80  degrees                     : 0
    faces with skewness > 4   (internal) or 20  (boundary) : 0
    faces with interpolation weights (0..1)  < 0.02        : 0
    faces with volume ratio of neighbour cells < 0.01      : 0
    faces with face twist < 0.02                           : 0
    faces on cells with determinant < 0.001                : 0
displacementMedialAxis : Successfully moved mesh
displacementMedialAxis : Finished moving mesh ...
truncateDisplacement : Unextruded 0 faces due to non-consecutive vertices being extruded.
truncateDisplacement : Unextruded 0 faces due to stringed edges with inconsistent extrusion.

Setting up information for layer truncation ...

Checking mesh with layer ...
Checking faces in error :
    non-orthogonality > 65  degrees                        : 0
    faces with face pyramid volume < 1e-13                 : 0
    faces with face-decomposition tet quality < 1e-15      : 0
    faces with concavity > 80  degrees                     : 0
    faces with skewness > 4   (internal) or 20  (boundary) : 0
    faces with interpolation weights (0..1)  < 0.02        : 0
    faces with volume ratio of neighbour cells < 0.01      : 0
    faces with face twist < 0.02                           : 0
    faces on cells with determinant < 0.001                : 0
Detected 0 illegal faces (concave, zero area or negative cell pyramid volume)
Extruding 140207 out of 183120 faces (76.5656%). Removed extrusion at 0 faces.
Added 140207 out of 183120 cells (76.5656%).
Edge intersection testing:
    Number of edges             : 5903871
    Number of edges to retest   : 0
    Number of intersected edges : 289607

Doing final balancing
---------------------

Writing 140207 added cells to cellSet addedCells
Writing 0 faces inside added layer to faceSet layerFaces

Writing fields with layer information:
    nSurfaceLayers    : actual number of layers
    thickness         : overall layer thickness
    thicknessFraction : overall layer thickness (fraction of desired thickness)


patch                                            faces    layers   overall thickness
                                                                   [m]       [%]
-----                                            -----    ------   ---       ---
lowerWall                                        15842    0.994    0.0145    96.4    
motorBike_frt-fairing:001%1                      21784    0.689    0.00118   50.5    
motorBike_windshield:002%2                       184      0.984    0.00225   96.2    
motorBike_rr-wh-rim:005%5                        582      0.826    0.00102   43.8    
motorBike_rr-wh-rim:010%10                       1381     0.174    0.000293  12.5    
motorBike_fr-wh-rim:011%11                       1772     0.546    0.000591  25.2    
motorBike_fr-wh-brake-disk:012%12                256      1        0.00103   44.2    
motorBike_frame:016-shadow%13                    426      0.472    0.000403  17.3    
motorBike_rear-susp:014%14                       3693     0.785    0.00111   47.6    
motorBike_rear-susp:014-shadow%15                2086     0.765    0.00108   46.2    
motorBike_frame:016%16                           248      0.484    0.000464  19.9    
motorBike_rr-wh-rim:005-shadow%17                297      0.845    0.00101   43.1    
motorBike_rr-wh-chain-hub:022%22                 467      0.537    0.000483  20.8    
motorBike_rearseat%24                            1362     0.883    0.00175   68.5    
motorBike_frt-fairing%25                         2202     0.879    0.00151   63.8    
motorBike_windshield%26                          1486     0.637    0.00119   50.7    
motorBike_headlights%27                          581      0.979    0.00215   91.5    
motorBike_driversseat%28                         1604     0.784    0.00122   51.9    
motorBike_rear-body%29                           7400     0.886    0.00161   66.4    
motorBike_fuel-tank%30                           3226     0.915    0.0019    78      
motorBike_exhaust%31                             8462     0.715    0.00132   53      
motorBike_rr-wh-rim%32                           4349     0.886    0.00148   58.9    
motorBike_fr-mud-guard%33                        3080     0.429    0.000476  20.4    
motorBike_fr-wh-rim%34                           2207     0.915    0.00156   66.7    
motorBike_fr-wh-brake-disk%35                    1760     0.764    0.000745  31.8    
motorBike_fr-brake-caliper%36                    574      0.225    0.00016   6.84    
motorBike_fr-wh-tyre%37                          5030     0.738    0.00135   58      
motorBike_hbars%38                               2028     0.244    0.000242  10.4    
motorBike_fr-forks%39                            4358     0.72     0.0013    55.5    
motorBike_chain%40                               1786     0.126    8.64e-05  3.69    
motorBike_rr-wh-tyre%41                          4560     0.796    0.00173   59      
motorBike_square-dial%42                         20       1        0.00192   81.9    
motorBike_round-dial%43                          45       0.978    0.00102   43.4    
motorBike_dial-holder%44                         344      0.738    0.000715  30.8    
motorBike_rear-susp%45                           7096     0.787    0.00095   40.6    
motorBike_rear-brake-lights%46                   200      0.46     0.000388  16.8    
motorBike_rear-light-bracket%47                  634      0.833    0.00117   49.8    
motorBike_frame%48                               7660     0.795    0.00133   56.8    
motorBike_rear-mud-guard%49                      2531     0.614    0.000973  41.5    
motorBike_rear-susp-spring-damp%50               441      0.544    0.000518  22.1    
motorBike_fairing-inner-plate%51                 1562     0.802    0.00127   51.1    
motorBike_clutch-housing%52                      3817     0.968    0.00178   75.1    
motorBike_radiator%53                            425      0.155    7.61e-05  3.25    
motorBike_water-pipe%54                          327      0        0         0       
motorBike_water-pump%55                          267      0.404    0.000339  14.7    
motorBike_engine%56                              8735     0.901    0.00154   64.5    
motorBike_rear-shock-link%57                     107      0        0         0       
motorBike_rear-brake-fluid-pot-bracket%58        168      0.613    0.000617  26.7    
motorBike_rear-brake-fluid-pot%59                204      0.52     0.000303  13.1    
motorBike_footpeg%60                             344      0.343    0.00017   7.31    
motorBike_rr-wh-chain-hub%61                     461      0.677    0.000569  24.5    
motorBike_rear-brake-caliper%62                  571      0.366    0.000299  12.9    
motorBike_rider-helmet%65                        1804     0.953    0.00231   79.2    
motorBike_rider-visor%66                         548      1        0.00231   97      
motorBike_rider-boots%67                         3756     0.963    0.00199   84.5    
motorBike_rider-gloves%68                        1214     0.455    0.000753  32.1    
motorBike_rider-body%69                          14284    0.935    0.0022    81.2    
motorBike_frame:0%70                             140      0.671    0.00105   44.7    
motorBike_frt-fairing:001-shadow%74              13806    0.653    0.00115   49.2    
motorBike_windshield-shadow%75                   1011     0.61     0.00119   50.9    
motorBike_fr-mud-guard-shadow%81                 2093     0.399    0.000458  19.6    
motorBike_fr-wh-brake-disk-shadow%83             904      0.758    0.000753  32.2    
motorBike_rear-mud-guard-shadow%84               1628     0.588    0.000955  40.8    
motorBike_rear-susp-spring-damp-shadow%85        275      0.585    0.000576  24.7    
motorBike_radiator-shadow%86                     235      0.213    0.000108  4.61    
motorBike_rear-shock-link-shadow%87              57       0        0         0       
motorBike_rear-brake-fluid-pot-bracket-shadow%88 87       0.586    0.000528  23.4    
motorBike_rr-wh-chain-hub-shadow%89              246      0.683    0.000578  24.8    

Layer mesh : cells:1901596  faces:5903871  points:2122938
Cells per refinement level:
    0	9547
    1	4920
    2	16076
    3	48272
    4	991436
    5	127603
    6	703742
Writing mesh to time constant
Wrote mesh in = 54.1 s.
Layers added in = 54.1 s.
Checking final mesh ...
Checking faces in error :
    non-orthogonality > 65  degrees                        : 0
    faces with face pyramid volume < 1e-13                 : 0
    faces with face-decomposition tet quality < 1e-15      : 0
    faces with concavity > 80  degrees                     : 0
    faces with skewness > 4   (internal) or 20  (boundary) : 0
    faces with interpolation weights (0..1)  < 0.02        : 0
    faces with volume ratio of neighbour cells < 0.01      : 0
    faces with face twist < 0.02                           : 0
    faces on cells with determinant < 0.001                : 0
Finished meshing without any errors
Finished meshing in = 165.85 s.
End

Finalising parallel run
