/*---------------------------------------------------------------------------*\
  =========                 |
  \\      /  F ield         | OpenFOAM: The Open Source CFD Toolbox
   \\    /   O peration     | Website:  https://openfoam.org
    \\  /    A nd           | Version:  7
     \\/     M anipulation  |
\*---------------------------------------------------------------------------*/
Build  : 7
Exec   : snappyHexMesh -parallel -overwrite
Date   : Oct 14 2020
Time   : 12:00:11
Host   : "cpu-p-291"
PID    : 143839
I/O    : uncollated
Case   : /rds/user/hpcbras1/hpc-work/csd3/cclake-roce-gcc9-ompi3-ucx/openfoam/Openfoam_Mbike_4
nProcs : 128
Slaves : 
127
(
"cpu-p-291.143840"
"cpu-p-291.143841"
"cpu-p-291.143842"
"cpu-p-291.143843"
"cpu-p-291.143844"
"cpu-p-291.143845"
"cpu-p-291.143846"
"cpu-p-291.143847"
"cpu-p-291.143848"
"cpu-p-291.143849"
"cpu-p-291.143850"
"cpu-p-291.143851"
"cpu-p-291.143852"
"cpu-p-291.143853"
"cpu-p-291.143854"
"cpu-p-291.143855"
"cpu-p-291.143856"
"cpu-p-291.143857"
"cpu-p-291.143858"
"cpu-p-291.143859"
"cpu-p-291.143860"
"cpu-p-291.143861"
"cpu-p-291.143862"
"cpu-p-291.143863"
"cpu-p-291.143864"
"cpu-p-291.143865"
"cpu-p-291.143866"
"cpu-p-291.143867"
"cpu-p-291.143868"
"cpu-p-291.143869"
"cpu-p-291.143870"
"cpu-p-292.141411"
"cpu-p-292.141412"
"cpu-p-292.141413"
"cpu-p-292.141414"
"cpu-p-292.141415"
"cpu-p-292.141416"
"cpu-p-292.141417"
"cpu-p-292.141418"
"cpu-p-292.141419"
"cpu-p-292.141420"
"cpu-p-292.141421"
"cpu-p-292.141422"
"cpu-p-292.141423"
"cpu-p-292.141424"
"cpu-p-292.141425"
"cpu-p-292.141426"
"cpu-p-292.141427"
"cpu-p-292.141428"
"cpu-p-292.141429"
"cpu-p-292.141430"
"cpu-p-292.141431"
"cpu-p-292.141432"
"cpu-p-292.141433"
"cpu-p-292.141434"
"cpu-p-292.141435"
"cpu-p-292.141436"
"cpu-p-292.141437"
"cpu-p-292.141438"
"cpu-p-292.141439"
"cpu-p-292.141440"
"cpu-p-292.141442"
"cpu-p-292.141443"
"cpu-p-293.189493"
"cpu-p-293.189494"
"cpu-p-293.189495"
"cpu-p-293.189496"
"cpu-p-293.189497"
"cpu-p-293.189498"
"cpu-p-293.189499"
"cpu-p-293.189500"
"cpu-p-293.189501"
"cpu-p-293.189502"
"cpu-p-293.189503"
"cpu-p-293.189504"
"cpu-p-293.189505"
"cpu-p-293.189506"
"cpu-p-293.189507"
"cpu-p-293.189508"
"cpu-p-293.189509"
"cpu-p-293.189510"
"cpu-p-293.189511"
"cpu-p-293.189512"
"cpu-p-293.189513"
"cpu-p-293.189514"
"cpu-p-293.189515"
"cpu-p-293.189516"
"cpu-p-293.189517"
"cpu-p-293.189518"
"cpu-p-293.189519"
"cpu-p-293.189520"
"cpu-p-293.189521"
"cpu-p-293.189522"
"cpu-p-293.189523"
"cpu-p-293.189524"
"cpu-p-294.123476"
"cpu-p-294.123477"
"cpu-p-294.123478"
"cpu-p-294.123479"
"cpu-p-294.123480"
"cpu-p-294.123481"
"cpu-p-294.123482"
"cpu-p-294.123483"
"cpu-p-294.123484"
"cpu-p-294.123485"
"cpu-p-294.123486"
"cpu-p-294.123487"
"cpu-p-294.123488"
"cpu-p-294.123489"
"cpu-p-294.123490"
"cpu-p-294.123491"
"cpu-p-294.123492"
"cpu-p-294.123493"
"cpu-p-294.123494"
"cpu-p-294.123495"
"cpu-p-294.123496"
"cpu-p-294.123497"
"cpu-p-294.123498"
"cpu-p-294.123499"
"cpu-p-294.123500"
"cpu-p-294.123502"
"cpu-p-294.123503"
"cpu-p-294.123504"
"cpu-p-294.123505"
"cpu-p-294.123506"
"cpu-p-294.123507"
"cpu-p-294.123508"
)

Pstream initialized with:
    floatTransfer      : 0
    nProcsSimpleSum    : 0
    commsType          : nonBlocking
    polling iterations : 0
sigFpe : Enabling floating point exception trapping (FOAM_SIGFPE).
fileModificationChecking : Monitoring run-time modified files using timeStampMaster (fileModificationSkew 10)
allowSystemOperations : Allowing user-supplied system call operations

// * * * * * * * * * * * * * * * * * * * * * * * * * * * * * * * * * * * * * //
Create time

Create mesh for time = 0

Read mesh in = 1.07 s

Overall mesh bounding box  : (-5 -4 0) (15 4 8)
Relative tolerance         : 1e-06
Absolute matching distance : 2.29783e-05

Reading refinement surfaces.
Read refinement surfaces in = 1.47 s

Reading refinement shells.
Refinement level 4 for all cells inside refinementBox
Read refinement shells in = 0 s

Setting refinement level of surface to be consistent with shells.
Checked shell refinement in = 1.17 s

Reading features.
Read edgeMesh motorBike.eMesh
    points      : 20665
    edges       : 20867
    boundingBox : (-0.241214 -0.337971 -4.232e-05) (1.75115 0.329368 1.21979)

Refinement level according to distance to "motorBike.eMesh" (20665 points, 20867 edges).
    level 6 for all cells within 0 metre.
Read features in = 0.07 s


Determining initial surface intersections
-----------------------------------------

Edge intersection testing:
    Number of edges             : 32256
    Number of edges to retest   : 32256
    Number of intersected edges : 26
Calculated surface intersections in = 0.01 s

Initial mesh : cells:10240  faces:32256  points:11849
Cells per refinement level:
    0	10240

Adding patches for surface regions
----------------------------------

Patch Type                Region                        
----- ----                ------                        
motorBike:

5     wall                motorBike_frt-fairing:001%1   
6     wall                motorBike_windshield:002%2    
7     wall                motorBike_rr-wh-rim:005%5     
8     wall                motorBike_rr-wh-rim:010%10    
9     wall                motorBike_fr-wh-rim:011%11    
10    wall                motorBike_fr-wh-brake-disk:012%12
11    wall                motorBike_frame:016-shadow%13 
12    wall                motorBike_rear-susp:014%14    
13    wall                motorBike_rear-susp:014-shadow%15
14    wall                motorBike_frame:016%16        
15    wall                motorBike_rr-wh-rim:005-shadow%17
16    wall                motorBike_rr-wh-chain-hub:022%22
17    wall                motorBike_rearseat%24         
18    wall                motorBike_frt-fairing%25      
19    wall                motorBike_windshield%26       
20    wall                motorBike_headlights%27       
21    wall                motorBike_driversseat%28      
22    wall                motorBike_rear-body%29        
23    wall                motorBike_fuel-tank%30        
24    wall                motorBike_exhaust%31          
25    wall                motorBike_rr-wh-rim%32        
26    wall                motorBike_fr-mud-guard%33     
27    wall                motorBike_fr-wh-rim%34        
28    wall                motorBike_fr-wh-brake-disk%35 
29    wall                motorBike_fr-brake-caliper%36 
30    wall                motorBike_fr-wh-tyre%37       
31    wall                motorBike_hbars%38            
32    wall                motorBike_fr-forks%39         
33    wall                motorBike_chain%40            
34    wall                motorBike_rr-wh-tyre%41       
35    wall                motorBike_square-dial%42      
36    wall                motorBike_round-dial%43       
37    wall                motorBike_dial-holder%44      
38    wall                motorBike_rear-susp%45        
39    wall                motorBike_rear-brake-lights%46
40    wall                motorBike_rear-light-bracket%47
41    wall                motorBike_frame%48            
42    wall                motorBike_rear-mud-guard%49   
43    wall                motorBike_rear-susp-spring-damp%50
44    wall                motorBike_fairing-inner-plate%51
45    wall                motorBike_clutch-housing%52   
46    wall                motorBike_radiator%53         
47    wall                motorBike_water-pipe%54       
48    wall                motorBike_water-pump%55       
49    wall                motorBike_engine%56           
50    wall                motorBike_rear-shock-link%57  
51    wall                motorBike_rear-brake-fluid-pot-bracket%58
52    wall                motorBike_rear-brake-fluid-pot%59
53    wall                motorBike_footpeg%60          
54    wall                motorBike_rr-wh-chain-hub%61  
55    wall                motorBike_rear-brake-caliper%62
56    wall                motorBike_rider-helmet%65     
57    wall                motorBike_rider-visor%66      
58    wall                motorBike_rider-boots%67      
59    wall                motorBike_rider-gloves%68     
60    wall                motorBike_rider-body%69       
61    wall                motorBike_frame:0%70          
62    wall                motorBike_frt-fairing:001-shadow%74
63    wall                motorBike_windshield-shadow%75
64    wall                motorBike_fr-mud-guard-shadow%81
65    wall                motorBike_fr-wh-brake-disk-shadow%83
66    wall                motorBike_rear-mud-guard-shadow%84
67    wall                motorBike_rear-susp-spring-damp-shadow%85
68    wall                motorBike_radiator-shadow%86  
69    wall                motorBike_rear-shock-link-shadow%87
70    wall                motorBike_rear-brake-fluid-pot-bracket-shadow%88
[1]  Foam::decompositionMethod::New 
[1] {
[1]     numberOfSubdomains 128;
[1]     method          scotch;
[1]     simpleCoeffs
[1]     {
[1]         n               ( 4 1 1 );
[1]         delta           0.001;
[1]     }
[1]     hierarchicalCoeffs
[1]     {
[1]         n               ( 3 2 1 );
[1]         delta           0.001;
[1]         order           xyz;
[1]     }
[1]     manualCoeffs
[1]     {
[1]         dataFile        "cellDecomposition";
[1]     }
[1] }
[1] 
[1] Selecting decompositionMethod scotch
[2]  Foam::decompositionMethod::New 
[2] {
[2]     numberOfSubdomains 128;
[2]     method          scotch;
[2]     simpleCoeffs
[2]     {
[2]         n               ( 4 1 1 );
[2]         delta           0.001;
[2]     }
[2]     hierarchicalCoeffs
[2]     {
[2]         n               ( 3 2 1 );
[2]         delta           0.001;
[2]         order           xyz;
[2]     }
[2]     manualCoeffs
[2]     {
[2]         dataFile        "cellDecomposition";
[2]     }
[2] }
[2] 
[2] Selecting decompositionMethod scotch
[3]  Foam::decompositionMethod::New 
[3] {
[3]     numberOfSubdomains 128;
[3]     method          scotch;
[3]     simpleCoeffs
[3]     {
[3]         n               ( 4 1 1 );
[3]         delta           0.001;
[3]     }
[3]     hierarchicalCoeffs
[3]     {
[3]         n               ( 3 2 1 );
[3]         delta           0.001;
[3]         order           xyz;
[3]     }
[3]     manualCoeffs
[3]     {
[3]         dataFile        "cellDecomposition";
[3]     }
[3] }
[3] 
[3] Selecting decompositionMethod scotch
[4]  Foam::decompositionMethod::New 
[4] {
[4]     numberOfSubdomains 128;
[4]     method          scotch;
[4]     simpleCoeffs
[4]     {
[4]         n               ( 4 1 1 );
[4]         delta           0.001;
[4]     }
[4]     hierarchicalCoeffs
[4]     {
[4]         n               ( 3 2 1 );
[4]         delta           0.001;
[4]         order           xyz;
[4]     }
[4]     manualCoeffs
[4]     {
[4]         dataFile        "cellDecomposition";
[4]     }
[4] }
[4] 
[4] Selecting decompositionMethod scotch
[5]  Foam::decompositionMethod::New 
[5] {
[5]     numberOfSubdomains 128;
[5]     method          scotch;
[5]     simpleCoeffs
[5]     {
[5]         n               ( 4 1 1 );
[5]         delta           0.001;
[5]     }
[5]     hierarchicalCoeffs
[5]     {
[5]         n               ( 3 2 1 );
[5]         delta           0.001;
[5]         order           xyz;
[5]     }
[5]     manualCoeffs
[5]     {
[5]         dataFile        "cellDecomposition";
[5]     }
[5] }
[5] 
[5] Selecting decompositionMethod scotch
[6]  Foam::decompositionMethod::New 
[6] {
[6]     numberOfSubdomains 128;
[6]     method          scotch;
[6]     simpleCoeffs
[6]     {
[6]         n               ( 4 1 1 );
[6]         delta           0.001;
[6]     }
[6]     hierarchicalCoeffs
[6]     {
[6]         n               ( 3 2 1 );
[6]         delta           0.001;
[6]         order           xyz;
[6]     }
[6]     manualCoeffs
[6]     {
[6]         dataFile        "cellDecomposition";
[6]     }
[6] }
[6] 
[6] Selecting decompositionMethod scotch
[7]  Foam::decompositionMethod::New 
[7] {
[7]     numberOfSubdomains 128;
[7]     method          scotch;
[7]     simpleCoeffs
[7]     {
[7]         n               ( 4 1 1 );
[7]         delta           0.001;
[7]     }
[7]     hierarchicalCoeffs
[7]     {
[7]         n               ( 3 2 1 );
[7]         delta           0.001;
[7]         order           xyz;
[7]     }
[7]     manualCoeffs
[7]     {
[7]         dataFile        "cellDecomposition";
[7]     }
[7] }
[7] 
[7] Selecting decompositionMethod scotch
[8]  Foam::decompositionMethod::New 
[8] {
[8]     numberOfSubdomains 128;
[8]     method          scotch;
[8]     simpleCoeffs
[8]     {
[8]         n               ( 4 1 1 );
[8]         delta           0.001;
[8]     }
[8]     hierarchicalCoeffs
[8]     {
[8]         n               ( 3 2 1 );
[8]         delta           0.001;
[8]         order           xyz;
[8]     }
[8]     manualCoeffs
[8]     {
[8]         dataFile        "cellDecomposition";
[8]     }
[8] }
[8] 
[8] Selecting decompositionMethod scotch
[9]  Foam::decompositionMethod::New 
[9] {
[9]     numberOfSubdomains 128;
[9]     method          scotch;
[9]     simpleCoeffs
[9]     {
[9]         n               ( 4 1 1 );
[9]         delta           0.001;
[9]     }
[9]     hierarchicalCoeffs
[9]     {
[9]         n               ( 3 2 1 );
[9]         delta           0.001;
[9]         order           xyz;
[9]     }
[9]     manualCoeffs
[9]     {
[9]         dataFile        "cellDecomposition";
[9]     }
[9] }
[9] 
[9] Selecting decompositionMethod scotch
[10]  Foam::decompositionMethod::New 
[10] {
[10]     numberOfSubdomains 128;
[10]     method          scotch;
[10]     simpleCoeffs
[10]     {
[10]         n               ( 4 1 1 );
[10]         delta           0.001;
[10]     }
[10]     hierarchicalCoeffs
[10]     {
[10]         n               ( 3 2 1 );
[10]         delta           0.001;
[10]         order           xyz;
[10]     }
[10]     manualCoeffs
[10]     {
[10]         dataFile        "cellDecomposition";
[10]     }
[10] }
[10] 
[10] Selecting decompositionMethod scotch
[11]  Foam::decompositionMethod::New 
[11] {
[11]     numberOfSubdomains 128;
[11]     method          scotch;
[11]     simpleCoeffs
[11]     {
[11]         n               ( 4 1 1 );
[11]         delta           0.001;
[11]     }
[11]     hierarchicalCoeffs
[11]     {
[11]         n               ( 3 2 1 );
[11]         delta           0.001;
[11]         order           xyz;
[11]     }
[11]     manualCoeffs
[11]     {
[11]         dataFile        "cellDecomposition";
[11]     }
[11] }
[11] 
[11] Selecting decompositionMethod scotch
[12]  Foam::decompositionMethod::New 
[12] {
[12]     numberOfSubdomains 128;
[12]     method          scotch;
[12]     simpleCoeffs
[12]     {
[12]         n               ( 4 1 1 );
[12]         delta           0.001;
[12]     }
[12]     hierarchicalCoeffs
[12]     {
[12]         n               ( 3 2 1 );
[12]         delta           0.001;
[12]         order           xyz;
[12]     }
[12]     manualCoeffs
[12]     {
[12]         dataFile        "cellDecomposition";
[12]     }
[12] }
[12] 
[12] Selecting decompositionMethod scotch
[13]  Foam::decompositionMethod::New 
[13] {
[13]     numberOfSubdomains 128;
[13]     method          scotch;
[13]     simpleCoeffs
[13]     {
[13]         n               ( 4 1 1 );
[13]         delta           0.001;
[13]     }
[13]     hierarchicalCoeffs
[13]     {
[13]         n               ( 3 2 1 );
[13]         delta           0.001;
[13]         order           xyz;
[13]     }
[13]     manualCoeffs
[13]     {
[13]         dataFile        "cellDecomposition";
[13]     }
[13] }
[13] 
[13] Selecting decompositionMethod scotch
[14]  Foam::decompositionMethod::New 
[14] {
[14]     numberOfSubdomains 128;
[14]     method          scotch;
[14]     simpleCoeffs
[14]     {
[14]         n               ( 4 1 1 );
[14]         delta           0.001;
[14]     }
[14]     hierarchicalCoeffs
[14]     {
[14]         n               ( 3 2 1 );
[14]         delta           0.001;
[14]         order           xyz;
[14]     }
[14]     manualCoeffs
[14]     {
[14]         dataFile        "cellDecomposition";
[14]     }
[14] }
[14] 
[14] Selecting decompositionMethod scotch
[15]  Foam::decompositionMethod::New 
[15] {
[15]     numberOfSubdomains 128;
[15]     method          scotch;
[15]     simpleCoeffs
[15]     {
[15]         n               ( 4 1 1 );
[15]         delta           0.001;
[15]     }
[15]     hierarchicalCoeffs
[15]     {
[15]         n               ( 3 2 1 );
[15]         delta           0.001;
[15]         order           xyz;
[15]     }
[15]     manualCoeffs
[15]     {
[15]         dataFile        "cellDecomposition";
[15]     }
[15] }
[15] 
[15] Selecting decompositionMethod scotch
[16]  Foam::decompositionMethod::New 
[16] {
[16]     numberOfSubdomains 128;
[16]     method          scotch;
[16]     simpleCoeffs
[16]     {
[16]         n               ( 4 1 1 );
[16]         delta           0.001;
[16]     }
[16]     hierarchicalCoeffs
[16]     {
[16]         n               ( 3 2 1 );
[16]         delta           0.001;
[16]         order           xyz;
[16]     }
[16]     manualCoeffs
[16]     {
[16]         dataFile        "cellDecomposition";
[16]     }
[16] }
[16] 
[16] Selecting decompositionMethod scotch
[17]  Foam::decompositionMethod::New 
[17] {
[17]     numberOfSubdomains 128;
[17]     method          scotch;
[17]     simpleCoeffs
[17]     {
[17]         n               ( 4 1 1 );
[17]         delta           0.001;
[17]     }
[17]     hierarchicalCoeffs
[17]     {
[17]         n               ( 3 2 1 );
[17]         delta           0.001;
[17]         order           xyz;
[17]     }
[17]     manualCoeffs
[17]     {
[17]         dataFile        "cellDecomposition";
[17]     }
[17] }
[17] 
[17] Selecting decompositionMethod scotch
[18]  Foam::decompositionMethod::New 
[18] {
[18]     numberOfSubdomains 128;
[18]     method          scotch;
[18]     simpleCoeffs
[18]     {
[18]         n               ( 4 1 1 );
[18]         delta           0.001;
[18]     }
[18]     hierarchicalCoeffs
[18]     {
[18]         n               ( 3 2 1 );
[18]         delta           0.001;
[18]         order           xyz;
[18]     }
[18]     manualCoeffs
[18]     {
[18]         dataFile        "cellDecomposition";
[18]     }
[18] }
[18] 
[18] Selecting decompositionMethod scotch
[19]  Foam::decompositionMethod::New 
[19] {
[19]     numberOfSubdomains 128;
[19]     method          scotch;
[19]     simpleCoeffs
[19]     {
[19]         n               ( 4 1 1 );
[19]         delta           0.001;
[19]     }
[19]     hierarchicalCoeffs
[19]     {
[19]         n               ( 3 2 1 );
[19]         delta           0.001;
[19]         order           xyz;
[19]     }
[19]     manualCoeffs
[19]     {
[19]         dataFile        "cellDecomposition";
[19]     }
[19] }
[19] 
[19] Selecting decompositionMethod scotch
[20]  Foam::decompositionMethod::New 
[20] {
[20]     numberOfSubdomains 128;
[20]     method          scotch;
[20]     simpleCoeffs
[20]     {
[20]         n               ( 4 1 1 );
[20]         delta           0.001;
[20]     }
[20]     hierarchicalCoeffs
[20]     {
[20]         n               ( 3 2 1 );
[20]         delta           0.001;
[20]         order           xyz;
[20]     }
[20]     manualCoeffs
[20]     {
[20]         dataFile        "cellDecomposition";
[20]     }
[20] }
[20] 
[20] Selecting decompositionMethod scotch
[21]  Foam::decompositionMethod::New 
[21] {
[21]     numberOfSubdomains 128;
[21]     method          scotch;
[21]     simpleCoeffs
[21]     {
[21]         n               ( 4 1 1 );
[21]         delta           0.001;
[21]     }
[21]     hierarchicalCoeffs
[21]     {
[21]         n               ( 3 2 1 );
[21]         delta           0.001;
[21]         order           xyz;
[21]     }
[21]     manualCoeffs
[21]     {
[21]         dataFile        "cellDecomposition";
[21]     }
[21] }
[21] 
[21] Selecting decompositionMethod scotch
[22]  Foam::decompositionMethod::New 
[22] {
[22]     numberOfSubdomains 128;
[22]     method          scotch;
[22]     simpleCoeffs
[22]     {
[22]         n               ( 4 1 1 );
[22]         delta           0.001;
[22]     }
[22]     hierarchicalCoeffs
[22]     {
[22]         n               ( 3 2 1 );
[22]         delta           0.001;
[22]         order           xyz;
[22]     }
[22]     manualCoeffs
[22]     {
[22]         dataFile        "cellDecomposition";
[22]     }
[22] }
[22] 
[22] Selecting decompositionMethod scotch
[23]  Foam::decompositionMethod::New 
[23] {
[23]     numberOfSubdomains 128;
[23]     method          scotch;
[23]     simpleCoeffs
[23]     {
[23]         n               ( 4 1 1 );
[23]         delta           0.001;
[23]     }
[23]     hierarchicalCoeffs
[23]     {
[23]         n               ( 3 2 1 );
[23]         delta           0.001;
[23]         order           xyz;
[23]     }
[23]     manualCoeffs
[23]     {
[23]         dataFile        "cellDecomposition";
[23]     }
[23] }
[23] 
[23] Selecting decompositionMethod scotch
[24]  Foam::decompositionMethod::New 
[24] {
[24]     numberOfSubdomains 128;
[24]     method          scotch;
[24]     simpleCoeffs
[24]     {
[24]         n               ( 4 1 1 );
[24]         delta           0.001;
[24]     }
[24]     hierarchicalCoeffs
[24]     {
[24]         n               ( 3 2 1 );
[24]         delta           0.001;
[24]         order           xyz;
[24]     }
[24]     manualCoeffs
[24]     {
[24]         dataFile        "cellDecomposition";
[24]     }
[24] }
[24] 
[24] Selecting decompositionMethod scotch
[25]  Foam::decompositionMethod::New 
[25] {
[25]     numberOfSubdomains 128;
[25]     method          scotch;
[25]     simpleCoeffs
[25]     {
[25]         n               ( 4 1 1 );
[25]         delta           0.001;
[25]     }
[25]     hierarchicalCoeffs
[25]     {
[25]         n               ( 3 2 1 );
[25]         delta           0.001;
[25]         order           xyz;
[25]     }
[25]     manualCoeffs
[25]     {
[25]         dataFile        "cellDecomposition";
[25]     }
[25] }
[25] 
[25] Selecting decompositionMethod scotch
[26]  Foam::decompositionMethod::New 
[26] {
[26]     numberOfSubdomains 128;
[26]     method          scotch;
[26]     simpleCoeffs
[26]     {
[26]         n               ( 4 1 1 );
[26]         delta           0.001;
[26]     }
[26]     hierarchicalCoeffs
[26]     {
[26]         n               ( 3 2 1 );
[26]         delta           0.001;
[26]         order           xyz;
[26]     }
[26]     manualCoeffs
[26]     {
[26]         dataFile        "cellDecomposition";
[26]     }
[26] }
[26] 
[26] Selecting decompositionMethod scotch
[27]  Foam::decompositionMethod::New 
[27] {
[27]     numberOfSubdomains 128;
[27]     method          scotch;
[27]     simpleCoeffs
[27]     {
[27]         n               ( 4 1 1 );
[27]         delta           0.001;
[27]     }
[27]     hierarchicalCoeffs
[27]     {
[27]         n               ( 3 2 1 );
[27]         delta           0.001;
[27]         order           xyz;
[27]     }
[27]     manualCoeffs
[27]     {
[27]         dataFile        "cellDecomposition";
[27]     }
[27] }
[27] 
[27] Selecting decompositionMethod scotch
[28]  Foam::decompositionMethod::New 
[28] {
[28]     numberOfSubdomains 128;
[28]     method          scotch;
[28]     simpleCoeffs
[28]     {
[28]         n               ( 4 1 1 );
[28]         delta           0.001;
[28]     }
[28]     hierarchicalCoeffs
[28]     {
[28]         n               ( 3 2 1 );
[28]         delta           0.001;
[28]         order           xyz;
[28]     }
[28]     manualCoeffs
[28]     {
[28]         dataFile        "cellDecomposition";
[28]     }
[28] }
[28] 
[28] Selecting decompositionMethod scotch
[29]  Foam::decompositionMethod::New 
[29] {
[29]     numberOfSubdomains 128;
[29]     method          scotch;
[29]     simpleCoeffs
[29]     {
[29]         n               ( 4 1 1 );
[29]         delta           0.001;
[29]     }
[29]     hierarchicalCoeffs
[29]     {
[29]         n               ( 3 2 1 );
[29]         delta           0.001;
[29]         order           xyz;
[29]     }
[29]     manualCoeffs
[29]     {
[29]         dataFile        "cellDecomposition";
[29]     }
[29] }
[29] 
[29] Selecting decompositionMethod scotch
[30]  Foam::decompositionMethod::New 
[30] {
[30]     numberOfSubdomains 128;
[30]     method          scotch;
[30]     simpleCoeffs
[30]     {
[30]         n               ( 4 1 1 );
[30]         delta           0.001;
[30]     }
[30]     hierarchicalCoeffs
[30]     {
[30]         n               ( 3 2 1 );
[30]         delta           0.001;
[30]         order           xyz;
[30]     }
[30]     manualCoeffs
[30]     {
[30]         dataFile        "cellDecomposition";
[30]     }
[30] }
[30] 
[30] Selecting decompositionMethod scotch
[31]  Foam::decompositionMethod::New 
[31] {
[31]     numberOfSubdomains 128;
[31]     method          scotch;
[31]     simpleCoeffs
[31]     {
[31]         n               ( 4 1 1 );
[31]         delta           0.001;
[31]     }
[31]     hierarchicalCoeffs
[31]     {
[31]         n               ( 3 2 1 );
[31]         delta           0.001;
[31]         order           xyz;
[31]     }
[31]     manualCoeffs
[31]     {
[31]         dataFile        "cellDecomposition";
[31]     }
[31] }
[31] 
[31] Selecting decompositionMethod scotch
71    wall                motorBike_rr-wh-chain-hub-shadow%89

Added patches in = 0.05 s

[0]  Foam::decompositionMethod::New 
[0] {
[0]     numberOfSubdomains 128;
[0]     method          scotch;
[0]     simpleCoeffs
[0]     {
[0]         n               ( 4 1 1 );
[0]         delta           0.001;
[0]     }
[0]     hierarchicalCoeffs
[0]     {
[0]         n               ( 3 2 1 );
[0]         delta           0.001;
[0]         order           xyz;
[0]     }
[0]     manualCoeffs
[0]     {
[0]         dataFile        "cellDecomposition";
[0]     }
[0] }
[0] 
[0] Selecting decompositionMethod scotch
Layer thickness specified as final layer and expansion ratio.

Refinement phase
----------------

[64]  Foam::decompositionMethod::New 
[64] {
[64]     numberOfSubdomains 128;
[64]     method          scotch;
[64]     simpleCoeffs
[64]     {
[64]         n               ( 4 1 1 );
[64]         delta           0.001;
[64]     }
[64]     hierarchicalCoeffs
[64]     {
[64]         n               ( 3 2 1 );
[64]         delta           0.001;
[64]         order           xyz;
[64]     }
[64]     manualCoeffs
[64]     {
[64]         dataFile        "cellDecomposition";
[64]     }
[64] }
[64] 
[64] Selecting decompositionMethod scotch
[65]  Foam::decompositionMethod::New 
[65] {
[65]     numberOfSubdomains 128;
[65]     method          scotch;
[65]     simpleCoeffs
[65]     {
[65]         n               ( 4 1 1 );
[65]         delta           0.001;
[65]     }
[65]     hierarchicalCoeffs
[65]     {
[65]         n               ( 3 2 1 );
[65]         delta           0.001;
[65]         order           xyz;
[65]     }
[65]     manualCoeffs
[65]     {
[65]         dataFile        "cellDecomposition";
[65]     }
[65] }
[65] 
[65] Selecting decompositionMethod scotch
[96]  Foam::decompositionMethod::New 
[96] {
[96]     numberOfSubdomains 128;
[96]     method          scotch;
[96]     simpleCoeffs
[96]     {
[96]         n               ( 4 1 1 );
[96]         delta           0.001;
[96]     }
[96]     hierarchicalCoeffs
[96]     {
[96]         n               ( 3 2 1 );
[96]         delta           0.001;
[96]         order           xyz;
[96]     }
[96]     manualCoeffs
[96]     {
[96]         dataFile        "cellDecomposition";
[96]     }
[96] }
[96] 
[96] Selecting decompositionMethod scotch
[66]  Foam::decompositionMethod::New 
[66] {
[66]     numberOfSubdomains 128;
[66]     method          scotch;
[66]     simpleCoeffs
[66]     {
[66]         n               ( 4 1 1 );
[66]         delta           0.001;
[66]     }
[66]     hierarchicalCoeffs
[66]     {
[66]         n               ( 3 2 1 );
[66]         delta           0.001;
[66]         order           xyz;
[66]     }
[66]     manualCoeffs
[66]     {
[66]         dataFile        "cellDecomposition";
[66]     }
[66] }
[66] 
[66] Selecting decompositionMethod scotch
[97]  Foam::decompositionMethod::New 
[97] {
[97]     numberOfSubdomains 128;
[97]     method          scotch;
[97]     simpleCoeffs
[97]     {
[97]         n               ( 4 1 1 );
[97]         delta           0.001;
[97]     }
[97]     hierarchicalCoeffs
[97]     {
[97]         n               ( 3 2 1 );
[97]         delta           0.001;
[97]         order           xyz;
[97]     }
[97]     manualCoeffs
[97]     {
[97]         dataFile        "cellDecomposition";
[97]     }
[97] }
[97] 
[97] Selecting decompositionMethod scotch
[67]  Foam::decompositionMethod::New 
[67] {
[67]     numberOfSubdomains 128;
[67]     method          scotch;
[67]     simpleCoeffs
[67]     {
[67]         n               ( 4 1 1 );
[67]         delta           0.001;
[67]     }
[67]     hierarchicalCoeffs
[67]     {
[67]         n               ( 3 2 1 );
[67]         delta           0.001;
[67]         order           xyz;
[67]     }
[67]     manualCoeffs
[67]     {
[67]         dataFile        "cellDecomposition";
[67]     }
[67] }
[67] 
[67] Selecting decompositionMethod scotch
[98]  Foam::decompositionMethod::New 
[98] {
[98]     numberOfSubdomains 128;
[98]     method          scotch;
[98]     simpleCoeffs
[98]     {
[98]         n               ( 4 1 1 );
[98]         delta           0.001;
[98]     }
[98]     hierarchicalCoeffs
[98]     {
[98]         n               ( 3 2 1 );
[98]         delta           0.001;
[98]         order           xyz;
[98]     }
[98]     manualCoeffs
[98]     {
[98]         dataFile        "cellDecomposition";
[98]     }
[98] }
[98] 
[98] Selecting decompositionMethod scotch
[34]  Foam::decompositionMethod::New 
[34] {
[34]     numberOfSubdomains 128;
[34]     method          scotch;
[34]     simpleCoeffs
[34]     {
[34]         n               ( 4 1 1 );
[34]         delta           0.001;
[34]     }
[34]     hierarchicalCoeffs
[34]     {
[34]         n               ( 3 2 1 );
[34]         delta           0.001;
[34]         order           xyz;
[34]     }
[34]     manualCoeffs
[34]     {
[34]         dataFile        "cellDecomposition";
[34]     }
[34] }
[34] 
[34] Selecting decompositionMethod scotch
[68]  Foam::decompositionMethod::New 
[68] {
[68]     numberOfSubdomains 128;
[68]     method          scotch;
[68]     simpleCoeffs
[68]     {
[68]         n               ( 4 1 1 );
[68]         delta           0.001;
[68]     }
[68]     hierarchicalCoeffs
[68]     {
[68]         n               ( 3 2 1 );
[68]         delta           0.001;
[68]         order           xyz;
[68]     }
[68]     manualCoeffs
[68]     {
[68]         dataFile        "cellDecomposition";
[68]     }
[68] }
[68] 
[68] Selecting decompositionMethod scotch
[99]  Foam::decompositionMethod::New 
[99] {
[99]     numberOfSubdomains 128;
[99]     method          scotch;
[99]     simpleCoeffs
[99]     {
[99]         n               ( 4 1 1 );
[99]         delta           0.001;
[99]     }
[99]     hierarchicalCoeffs
[99]     {
[99]         n               ( 3 2 1 );
[99]         delta           0.001;
[99]         order           xyz;
[99]     }
[99]     manualCoeffs
[99]     {
[99]         dataFile        "cellDecomposition";
[99]     }
[99] }
[99] 
[99] Selecting decompositionMethod scotch
[35]  Foam::decompositionMethod::New 
[35] {
[35]     numberOfSubdomains 128;
[35]     method          scotch;
[35]     simpleCoeffs
[35]     {
[35]         n               ( 4 1 1 );
[35]         delta           0.001;
[35]     }
[35]     hierarchicalCoeffs
[35]     {
[35]         n               ( 3 2 1 );
[35]         delta           0.001;
[35]         order           xyz;
[35]     }
[35]     manualCoeffs
[35]     {
[35]         dataFile        "cellDecomposition";
[35]     }
[35] }
[35] 
[35] Selecting decompositionMethod scotch
[69]  Foam::decompositionMethod::New 
[69] {
[69]     numberOfSubdomains 128;
[69]     method          scotch;
[69]     simpleCoeffs
[69]     {
[69]         n               ( 4 1 1 );
[69]         delta           0.001;
[69]     }
[69]     hierarchicalCoeffs
[69]     {
[69]         n               ( 3 2 1 );
[69]         delta           0.001;
[69]         order           xyz;
[69]     }
[69]     manualCoeffs
[69]     {
[69]         dataFile        "cellDecomposition";
[69]     }
[69] }
[69] 
[69] Selecting decompositionMethod scotch
[100]  Foam::decompositionMethod::New 
[100] {
[100]     numberOfSubdomains 128;
[100]     method          scotch;
[100]     simpleCoeffs
[100]     {
[100]         n               ( 4 1 1 );
[100]         delta           0.001;
[100]     }
[100]     hierarchicalCoeffs
[100]     {
[100]         n               ( 3 2 1 );
[100]         delta           0.001;
[100]         order           xyz;
[100]     }
[100]     manualCoeffs
[100]     {
[100]         dataFile        "cellDecomposition";
[100]     }
[100] }
[100] 
[100] Selecting decompositionMethod scotch
[36]  Foam::decompositionMethod::New 
[36] {
[36]     numberOfSubdomains 128;
[36]     method          scotch;
[36]     simpleCoeffs
[36]     {
[36]         n               ( 4 1 1 );
[36]         delta           0.001;
[36]     }
[36]     hierarchicalCoeffs
[36]     {
[36]         n               ( 3 2 1 );
[36]         delta           0.001;
[36]         order           xyz;
[36]     }
[36]     manualCoeffs
[36]     {
[36]         dataFile        "cellDecomposition";
[36]     }
[36] }
[36] 
[36] Selecting decompositionMethod scotch
[70]  Foam::decompositionMethod::New 
[70] {
[70]     numberOfSubdomains 128;
[70]     method          scotch;
[70]     simpleCoeffs
[70]     {
[70]         n               ( 4 1 1 );
[70]         delta           0.001;
[70]     }
[70]     hierarchicalCoeffs
[70]     {
[70]         n               ( 3 2 1 );
[70]         delta           0.001;
[70]         order           xyz;
[70]     }
[70]     manualCoeffs
[70]     {
[70]         dataFile        "cellDecomposition";
[70]     }
[70] }
[70] 
[70] Selecting decompositionMethod scotch
[101]  Foam::decompositionMethod::New 
[101] {
[101]     numberOfSubdomains 128;
[101]     method          scotch;
[101]     simpleCoeffs
[101]     {
[101]         n               ( 4 1 1 );
[101]         delta           0.001;
[101]     }
[101]     hierarchicalCoeffs
[101]     {
[101]         n               ( 3 2 1 );
[101]         delta           0.001;
[101]         order           xyz;
[101]     }
[101]     manualCoeffs
[101]     {
[101]         dataFile        "cellDecomposition";
[101]     }
[101] }
[101] 
[101] Selecting decompositionMethod scotch
[37]  Foam::decompositionMethod::New 
[37] {
[37]     numberOfSubdomains 128;
[37]     method          scotch;
[37]     simpleCoeffs
[37]     {
[37]         n               ( 4 1 1 );
[37]         delta           0.001;
[37]     }
[37]     hierarchicalCoeffs
[37]     {
[37]         n               ( 3 2 1 );
[37]         delta           0.001;
[37]         order           xyz;
[37]     }
[37]     manualCoeffs
[37]     {
[37]         dataFile        "cellDecomposition";
[37]     }
[37] }
[37] 
[37] Selecting decompositionMethod scotch
[71]  Foam::decompositionMethod::New 
[71] {
[71]     numberOfSubdomains 128;
[71]     method          scotch;
[71]     simpleCoeffs
[71]     {
[71]         n               ( 4 1 1 );
[71]         delta           0.001;
[71]     }
[71]     hierarchicalCoeffs
[71]     {
[71]         n               ( 3 2 1 );
[71]         delta           0.001;
[71]         order           xyz;
[71]     }
[71]     manualCoeffs
[71]     {
[71]         dataFile        "cellDecomposition";
[71]     }
[71] }
[71] 
[71] Selecting decompositionMethod scotch
[102]  Foam::decompositionMethod::New 
[102] {
[102]     numberOfSubdomains 128;
[102]     method          scotch;
[102]     simpleCoeffs
[102]     {
[102]         n               ( 4 1 1 );
[102]         delta           0.001;
[102]     }
[102]     hierarchicalCoeffs
[102]     {
[102]         n               ( 3 2 1 );
[102]         delta           0.001;
[102]         order           xyz;
[102]     }
[102]     manualCoeffs
[102]     {
[102]         dataFile        "cellDecomposition";
[102]     }
[102] }
[102] 
[102] Selecting decompositionMethod scotch
[38]  Foam::decompositionMethod::New 
[38] {
[38]     numberOfSubdomains 128;
[38]     method          scotch;
[38]     simpleCoeffs
[38]     {
[38]         n               ( 4 1 1 );
[38]         delta           0.001;
[38]     }
[38]     hierarchicalCoeffs
[38]     {
[38]         n               ( 3 2 1 );
[38]         delta           0.001;
[38]         order           xyz;
[38]     }
[38]     manualCoeffs
[38]     {
[38]         dataFile        "cellDecomposition";
[38]     }
[38] }
[38] 
[38] Selecting decompositionMethod scotch
[72]  Foam::decompositionMethod::New 
[72] {
[72]     numberOfSubdomains 128;
[72]     method          scotch;
[72]     simpleCoeffs
[72]     {
[72]         n               ( 4 1 1 );
[72]         delta           0.001;
[72]     }
[72]     hierarchicalCoeffs
[72]     {
[72]         n               ( 3 2 1 );
[72]         delta           0.001;
[72]         order           xyz;
[72]     }
[72]     manualCoeffs
[72]     {
[72]         dataFile        "cellDecomposition";
[72]     }
[72] }
[72] 
[72] Selecting decompositionMethod scotch
[103]  Foam::decompositionMethod::New 
[103] {
[103]     numberOfSubdomains 128;
[103]     method          scotch;
[103]     simpleCoeffs
[103]     {
[103]         n               ( 4 1 1 );
[103]         delta           0.001;
[103]     }
[103]     hierarchicalCoeffs
[103]     {
[103]         n               ( 3 2 1 );
[103]         delta           0.001;
[103]         order           xyz;
[103]     }
[103]     manualCoeffs
[103]     {
[103]         dataFile        "cellDecomposition";
[103]     }
[103] }
[103] 
[103] Selecting decompositionMethod scotch
[39]  Foam::decompositionMethod::New 
[39] {
[39]     numberOfSubdomains 128;
[39]     method          scotch;
[39]     simpleCoeffs
[39]     {
[39]         n               ( 4 1 1 );
[39]         delta           0.001;
[39]     }
[39]     hierarchicalCoeffs
[39]     {
[39]         n               ( 3 2 1 );
[39]         delta           0.001;
[39]         order           xyz;
[39]     }
[39]     manualCoeffs
[39]     {
[39]         dataFile        "cellDecomposition";
[39]     }
[39] }
[39] 
[39] Selecting decompositionMethod scotch
[73]  Foam::decompositionMethod::New 
[73] {
[73]     numberOfSubdomains 128;
[73]     method          scotch;
[73]     simpleCoeffs
[73]     {
[73]         n               ( 4 1 1 );
[73]         delta           0.001;
[73]     }
[73]     hierarchicalCoeffs
[73]     {
[73]         n               ( 3 2 1 );
[73]         delta           0.001;
[73]         order           xyz;
[73]     }
[73]     manualCoeffs
[73]     {
[73]         dataFile        "cellDecomposition";
[73]     }
[73] }
[73] 
[73] Selecting decompositionMethod scotch
[104]  Foam::decompositionMethod::New 
[104] {
[104]     numberOfSubdomains 128;
[104]     method          scotch;
[104]     simpleCoeffs
[104]     {
[104]         n               ( 4 1 1 );
[104]         delta           0.001;
[104]     }
[104]     hierarchicalCoeffs
[104]     {
[104]         n               ( 3 2 1 );
[104]         delta           0.001;
[104]         order           xyz;
[104]     }
[104]     manualCoeffs
[104]     {
[104]         dataFile        "cellDecomposition";
[104]     }
[104] }
[104] 
[104] Selecting decompositionMethod scotch
[40]  Foam::decompositionMethod::New 
[40] {
[40]     numberOfSubdomains 128;
[40]     method          scotch;
[40]     simpleCoeffs
[40]     {
[40]         n               ( 4 1 1 );
[40]         delta           0.001;
[40]     }
[40]     hierarchicalCoeffs
[40]     {
[40]         n               ( 3 2 1 );
[40]         delta           0.001;
[40]         order           xyz;
[40]     }
[40]     manualCoeffs
[40]     {
[40]         dataFile        "cellDecomposition";
[40]     }
[40] }
[40] 
[40] Selecting decompositionMethod scotch
[74]  Foam::decompositionMethod::New 
[74] {
[74]     numberOfSubdomains 128;
[74]     method          scotch;
[74]     simpleCoeffs
[74]     {
[74]         n               ( 4 1 1 );
[74]         delta           0.001;
[74]     }
[74]     hierarchicalCoeffs
[74]     {
[74]         n               ( 3 2 1 );
[74]         delta           0.001;
[74]         order           xyz;
[74]     }
[74]     manualCoeffs
[74]     {
[74]         dataFile        "cellDecomposition";
[74]     }
[74] }
[74] 
[74] Selecting decompositionMethod scotch
[105]  Foam::decompositionMethod::New 
[105] {
[105]     numberOfSubdomains 128;
[105]     method          scotch;
[105]     simpleCoeffs
[105]     {
[105]         n               ( 4 1 1 );
[105]         delta           0.001;
[105]     }
[105]     hierarchicalCoeffs
[105]     {
[105]         n               ( 3 2 1 );
[105]         delta           0.001;
[105]         order           xyz;
[105]     }
[105]     manualCoeffs
[105]     {
[105]         dataFile        "cellDecomposition";
[105]     }
[105] }
[105] 
[105] Selecting decompositionMethod scotch
[41]  Foam::decompositionMethod::New 
[41] {
[41]     numberOfSubdomains 128;
[41]     method          scotch;
[41]     simpleCoeffs
[41]     {
[41]         n               ( 4 1 1 );
[41]         delta           0.001;
[41]     }
[41]     hierarchicalCoeffs
[41]     {
[41]         n               ( 3 2 1 );
[41]         delta           0.001;
[41]         order           xyz;
[41]     }
[41]     manualCoeffs
[41]     {
[41]         dataFile        "cellDecomposition";
[41]     }
[41] }
[41] 
[41] Selecting decompositionMethod scotch
[75]  Foam::decompositionMethod::New 
[75] {
[75]     numberOfSubdomains 128;
[75]     method          scotch;
[75]     simpleCoeffs
[75]     {
[75]         n               ( 4 1 1 );
[75]         delta           0.001;
[75]     }
[75]     hierarchicalCoeffs
[75]     {
[75]         n               ( 3 2 1 );
[75]         delta           0.001;
[75]         order           xyz;
[75]     }
[75]     manualCoeffs
[75]     {
[75]         dataFile        "cellDecomposition";
[75]     }
[75] }
[75] 
[75] Selecting decompositionMethod scotch
[106]  Foam::decompositionMethod::New 
[106] {
[106]     numberOfSubdomains 128;
[106]     method          scotch;
[106]     simpleCoeffs
[106]     {
[106]         n               ( 4 1 1 );
[106]         delta           0.001;
[106]     }
[106]     hierarchicalCoeffs
[106]     {
[106]         n               ( 3 2 1 );
[106]         delta           0.001;
[106]         order           xyz;
[106]     }
[106]     manualCoeffs
[106]     {
[106]         dataFile        "cellDecomposition";
[106]     }
[106] }
[106] 
[106] Selecting decompositionMethod scotch
[42]  Foam::decompositionMethod::New 
[42] {
[42]     numberOfSubdomains 128;
[42]     method          scotch;
[42]     simpleCoeffs
[42]     {
[42]         n               ( 4 1 1 );
[42]         delta           0.001;
[42]     }
[42]     hierarchicalCoeffs
[42]     {
[42]         n               ( 3 2 1 );
[42]         delta           0.001;
[42]         order           xyz;
[42]     }
[42]     manualCoeffs
[42]     {
[42]         dataFile        "cellDecomposition";
[42]     }
[42] }
[42] 
[42] Selecting decompositionMethod scotch
[76]  Foam::decompositionMethod::New 
[76] {
[76]     numberOfSubdomains 128;
[76]     method          scotch;
[76]     simpleCoeffs
[76]     {
[76]         n               ( 4 1 1 );
[76]         delta           0.001;
[76]     }
[76]     hierarchicalCoeffs
[76]     {
[76]         n               ( 3 2 1 );
[76]         delta           0.001;
[76]         order           xyz;
[76]     }
[76]     manualCoeffs
[76]     {
[76]         dataFile        "cellDecomposition";
[76]     }
[76] }
[76] 
[76] Selecting decompositionMethod scotch
[107]  Foam::decompositionMethod::New 
[107] {
[107]     numberOfSubdomains 128;
[107]     method          scotch;
[107]     simpleCoeffs
[107]     {
[107]         n               ( 4 1 1 );
[107]         delta           0.001;
[107]     }
[107]     hierarchicalCoeffs
[107]     {
[107]         n               ( 3 2 1 );
[107]         delta           0.001;
[107]         order           xyz;
[107]     }
[107]     manualCoeffs
[107]     {
[107]         dataFile        "cellDecomposition";
[107]     }
[107] }
[107] 
[107] Selecting decompositionMethod scotch
[43]  Foam::decompositionMethod::New 
[43] {
[43]     numberOfSubdomains 128;
[43]     method          scotch;
[43]     simpleCoeffs
[43]     {
[43]         n               ( 4 1 1 );
[43]         delta           0.001;
[43]     }
[43]     hierarchicalCoeffs
[43]     {
[43]         n               ( 3 2 1 );
[43]         delta           0.001;
[43]         order           xyz;
[43]     }
[43]     manualCoeffs
[43]     {
[43]         dataFile        "cellDecomposition";
[43]     }
[43] }
[43] 
[43] Selecting decompositionMethod scotch
[77]  Foam::decompositionMethod::New 
[77] {
[77]     numberOfSubdomains 128;
[77]     method          scotch;
[77]     simpleCoeffs
[77]     {
[77]         n               ( 4 1 1 );
[77]         delta           0.001;
[77]     }
[77]     hierarchicalCoeffs
[77]     {
[77]         n               ( 3 2 1 );
[77]         delta           0.001;
[77]         order           xyz;
[77]     }
[77]     manualCoeffs
[77]     {
[77]         dataFile        "cellDecomposition";
[77]     }
[77] }
[77] 
[77] Selecting decompositionMethod scotch
[108]  Foam::decompositionMethod::New 
[108] {
[108]     numberOfSubdomains 128;
[108]     method          scotch;
[108]     simpleCoeffs
[108]     {
[108]         n               ( 4 1 1 );
[108]         delta           0.001;
[108]     }
[108]     hierarchicalCoeffs
[108]     {
[108]         n               ( 3 2 1 );
[108]         delta           0.001;
[108]         order           xyz;
[108]     }
[108]     manualCoeffs
[108]     {
[108]         dataFile        "cellDecomposition";
[108]     }
[108] }
[108] 
[108] Selecting decompositionMethod scotch
[44]  Foam::decompositionMethod::New 
[44] {
[44]     numberOfSubdomains 128;
[44]     method          scotch;
[44]     simpleCoeffs
[44]     {
[44]         n               ( 4 1 1 );
[44]         delta           0.001;
[44]     }
[44]     hierarchicalCoeffs
[44]     {
[44]         n               ( 3 2 1 );
[44]         delta           0.001;
[44]         order           xyz;
[44]     }
[44]     manualCoeffs
[44]     {
[44]         dataFile        "cellDecomposition";
[44]     }
[44] }
[44] 
[44] Selecting decompositionMethod scotch
[78]  Foam::decompositionMethod::New 
[78] {
[78]     numberOfSubdomains 128;
[78]     method          scotch;
[78]     simpleCoeffs
[78]     {
[78]         n               ( 4 1 1 );
[78]         delta           0.001;
[78]     }
[78]     hierarchicalCoeffs
[78]     {
[78]         n               ( 3 2 1 );
[78]         delta           0.001;
[78]         order           xyz;
[78]     }
[78]     manualCoeffs
[78]     {
[78]         dataFile        "cellDecomposition";
[78]     }
[78] }
[78] 
[78] Selecting decompositionMethod scotch
[109]  Foam::decompositionMethod::New 
[109] {
[109]     numberOfSubdomains 128;
[109]     method          scotch;
[109]     simpleCoeffs
[109]     {
[109]         n               ( 4 1 1 );
[109]         delta           0.001;
[109]     }
[109]     hierarchicalCoeffs
[109]     {
[109]         n               ( 3 2 1 );
[109]         delta           0.001;
[109]         order           xyz;
[109]     }
[109]     manualCoeffs
[109]     {
[109]         dataFile        "cellDecomposition";
[109]     }
[109] }
[109] 
[109] Selecting decompositionMethod scotch
[45]  Foam::decompositionMethod::New 
[45] {
[45]     numberOfSubdomains 128;
[45]     method          scotch;
[45]     simpleCoeffs
[45]     {
[45]         n               ( 4 1 1 );
[45]         delta           0.001;
[45]     }
[45]     hierarchicalCoeffs
[45]     {
[45]         n               ( 3 2 1 );
[45]         delta           0.001;
[45]         order           xyz;
[45]     }
[45]     manualCoeffs
[45]     {
[45]         dataFile        "cellDecomposition";
[45]     }
[45] }
[45] 
[45] Selecting decompositionMethod scotch
[79]  Foam::decompositionMethod::New 
[79] {
[79]     numberOfSubdomains 128;
[79]     method          scotch;
[79]     simpleCoeffs
[79]     {
[79]         n               ( 4 1 1 );
[79]         delta           0.001;
[79]     }
[79]     hierarchicalCoeffs
[79]     {
[79]         n               ( 3 2 1 );
[79]         delta           0.001;
[79]         order           xyz;
[79]     }
[79]     manualCoeffs
[79]     {
[79]         dataFile        "cellDecomposition";
[79]     }
[79] }
[79] 
[79] Selecting decompositionMethod scotch
[110]  Foam::decompositionMethod::New 
[110] {
[110]     numberOfSubdomains 128;
[110]     method          scotch;
[110]     simpleCoeffs
[110]     {
[110]         n               ( 4 1 1 );
[110]         delta           0.001;
[110]     }
[110]     hierarchicalCoeffs
[110]     {
[110]         n               ( 3 2 1 );
[110]         delta           0.001;
[110]         order           xyz;
[110]     }
[110]     manualCoeffs
[110]     {
[110]         dataFile        "cellDecomposition";
[110]     }
[110] }
[110] 
[110] Selecting decompositionMethod scotch
[46]  Foam::decompositionMethod::New 
[46] {
[46]     numberOfSubdomains 128;
[46]     method          scotch;
[46]     simpleCoeffs
[46]     {
[46]         n               ( 4 1 1 );
[46]         delta           0.001;
[46]     }
[46]     hierarchicalCoeffs
[46]     {
[46]         n               ( 3 2 1 );
[46]         delta           0.001;
[46]         order           xyz;
[46]     }
[46]     manualCoeffs
[46]     {
[46]         dataFile        "cellDecomposition";
[46]     }
[46] }
[46] 
[46] Selecting decompositionMethod scotch
[80]  Foam::decompositionMethod::New 
[80] {
[80]     numberOfSubdomains 128;
[80]     method          scotch;
[80]     simpleCoeffs
[80]     {
[80]         n               ( 4 1 1 );
[80]         delta           0.001;
[80]     }
[80]     hierarchicalCoeffs
[80]     {
[80]         n               ( 3 2 1 );
[80]         delta           0.001;
[80]         order           xyz;
[80]     }
[80]     manualCoeffs
[80]     {
[80]         dataFile        "cellDecomposition";
[80]     }
[80] }
[80] 
[80] Selecting decompositionMethod scotch
[111]  Foam::decompositionMethod::New 
[111] {
[111]     numberOfSubdomains 128;
[111]     method          scotch;
[111]     simpleCoeffs
[111]     {
[111]         n               ( 4 1 1 );
[111]         delta           0.001;
[111]     }
[111]     hierarchicalCoeffs
[111]     {
[111]         n               ( 3 2 1 );
[111]         delta           0.001;
[111]         order           xyz;
[111]     }
[111]     manualCoeffs
[111]     {
[111]         dataFile        "cellDecomposition";
[111]     }
[111] }
[111] 
[111] Selecting decompositionMethod scotch
[47]  Foam::decompositionMethod::New 
[47] {
[47]     numberOfSubdomains 128;
[47]     method          scotch;
[47]     simpleCoeffs
[47]     {
[47]         n               ( 4 1 1 );
[47]         delta           0.001;
[47]     }
[47]     hierarchicalCoeffs
[47]     {
[47]         n               ( 3 2 1 );
[47]         delta           0.001;
[47]         order           xyz;
[47]     }
[47]     manualCoeffs
[47]     {
[47]         dataFile        "cellDecomposition";
[47]     }
[47] }
[47] 
[47] Selecting decompositionMethod scotch
[81]  Foam::decompositionMethod::New 
[81] {
[81]     numberOfSubdomains 128;
[81]     method          scotch;
[81]     simpleCoeffs
[81]     {
[81]         n               ( 4 1 1 );
[81]         delta           0.001;
[81]     }
[81]     hierarchicalCoeffs
[81]     {
[81]         n               ( 3 2 1 );
[81]         delta           0.001;
[81]         order           xyz;
[81]     }
[81]     manualCoeffs
[81]     {
[81]         dataFile        "cellDecomposition";
[81]     }
[81] }
[81] 
[81] Selecting decompositionMethod scotch
[112]  Foam::decompositionMethod::New 
[112] {
[112]     numberOfSubdomains 128;
[112]     method          scotch;
[112]     simpleCoeffs
[112]     {
[112]         n               ( 4 1 1 );
[112]         delta           0.001;
[112]     }
[112]     hierarchicalCoeffs
[112]     {
[112]         n               ( 3 2 1 );
[112]         delta           0.001;
[112]         order           xyz;
[112]     }
[112]     manualCoeffs
[112]     {
[112]         dataFile        "cellDecomposition";
[112]     }
[112] }
[112] 
[112] Selecting decompositionMethod scotch
[48]  Foam::decompositionMethod::New 
[48] {
[48]     numberOfSubdomains 128;
[48]     method          scotch;
[48]     simpleCoeffs
[48]     {
[48]         n               ( 4 1 1 );
[48]         delta           0.001;
[48]     }
[48]     hierarchicalCoeffs
[48]     {
[48]         n               ( 3 2 1 );
[48]         delta           0.001;
[48]         order           xyz;
[48]     }
[48]     manualCoeffs
[48]     {
[48]         dataFile        "cellDecomposition";
[48]     }
[48] }
[48] 
[48] Selecting decompositionMethod scotch
[82]  Foam::decompositionMethod::New 
[82] {
[82]     numberOfSubdomains 128;
[82]     method          scotch;
[82]     simpleCoeffs
[82]     {
[82]         n               ( 4 1 1 );
[82]         delta           0.001;
[82]     }
[82]     hierarchicalCoeffs
[82]     {
[82]         n               ( 3 2 1 );
[82]         delta           0.001;
[82]         order           xyz;
[82]     }
[82]     manualCoeffs
[82]     {
[82]         dataFile        "cellDecomposition";
[82]     }
[82] }
[82] 
[82] Selecting decompositionMethod scotch
[113]  Foam::decompositionMethod::New 
[113] {
[113]     numberOfSubdomains 128;
[113]     method          scotch;
[113]     simpleCoeffs
[113]     {
[113]         n               ( 4 1 1 );
[113]         delta           0.001;
[113]     }
[113]     hierarchicalCoeffs
[113]     {
[113]         n               ( 3 2 1 );
[113]         delta           0.001;
[113]         order           xyz;
[113]     }
[113]     manualCoeffs
[113]     {
[113]         dataFile        "cellDecomposition";
[113]     }
[113] }
[113] 
[113] Selecting decompositionMethod scotch
[49]  Foam::decompositionMethod::New 
[49] {
[49]     numberOfSubdomains 128;
[49]     method          scotch;
[49]     simpleCoeffs
[49]     {
[49]         n               ( 4 1 1 );
[49]         delta           0.001;
[49]     }
[49]     hierarchicalCoeffs
[49]     {
[49]         n               ( 3 2 1 );
[49]         delta           0.001;
[49]         order           xyz;
[49]     }
[49]     manualCoeffs
[49]     {
[49]         dataFile        "cellDecomposition";
[49]     }
[49] }
[49] 
[49] Selecting decompositionMethod scotch
[83]  Foam::decompositionMethod::New 
[83] {
[83]     numberOfSubdomains 128;
[83]     method          scotch;
[83]     simpleCoeffs
[83]     {
[83]         n               ( 4 1 1 );
[83]         delta           0.001;
[83]     }
[83]     hierarchicalCoeffs
[83]     {
[83]         n               ( 3 2 1 );
[83]         delta           0.001;
[83]         order           xyz;
[83]     }
[83]     manualCoeffs
[83]     {
[83]         dataFile        "cellDecomposition";
[83]     }
[83] }
[83] 
[83] Selecting decompositionMethod scotch
[114]  Foam::decompositionMethod::New 
[114] {
[114]     numberOfSubdomains 128;
[114]     method          scotch;
[114]     simpleCoeffs
[114]     {
[114]         n               ( 4 1 1 );
[114]         delta           0.001;
[114]     }
[114]     hierarchicalCoeffs
[114]     {
[114]         n               ( 3 2 1 );
[114]         delta           0.001;
[114]         order           xyz;
[114]     }
[114]     manualCoeffs
[114]     {
[114]         dataFile        "cellDecomposition";
[114]     }
[114] }
[114] 
[114] Selecting decompositionMethod scotch
[50]  Foam::decompositionMethod::New 
[50] {
[50]     numberOfSubdomains 128;
[50]     method          scotch;
[50]     simpleCoeffs
[50]     {
[50]         n               ( 4 1 1 );
[50]         delta           0.001;
[50]     }
[50]     hierarchicalCoeffs
[50]     {
[50]         n               ( 3 2 1 );
[50]         delta           0.001;
[50]         order           xyz;
[50]     }
[50]     manualCoeffs
[50]     {
[50]         dataFile        "cellDecomposition";
[50]     }
[50] }
[50] 
[50] Selecting decompositionMethod scotch
[84]  Foam::decompositionMethod::New 
[84] {
[84]     numberOfSubdomains 128;
[84]     method          scotch;
[84]     simpleCoeffs
[84]     {
[84]         n               ( 4 1 1 );
[84]         delta           0.001;
[84]     }
[84]     hierarchicalCoeffs
[84]     {
[84]         n               ( 3 2 1 );
[84]         delta           0.001;
[84]         order           xyz;
[84]     }
[84]     manualCoeffs
[84]     {
[84]         dataFile        "cellDecomposition";
[84]     }
[84] }
[84] 
[84] Selecting decompositionMethod scotch
[115]  Foam::decompositionMethod::New 
[115] {
[115]     numberOfSubdomains 128;
[115]     method          scotch;
[115]     simpleCoeffs
[115]     {
[115]         n               ( 4 1 1 );
[115]         delta           0.001;
[115]     }
[115]     hierarchicalCoeffs
[115]     {
[115]         n               ( 3 2 1 );
[115]         delta           0.001;
[115]         order           xyz;
[115]     }
[115]     manualCoeffs
[115]     {
[115]         dataFile        "cellDecomposition";
[115]     }
[115] }
[115] 
[115] Selecting decompositionMethod scotch
[51]  Foam::decompositionMethod::New 
[51] {
[51]     numberOfSubdomains 128;
[51]     method          scotch;
[51]     simpleCoeffs
[51]     {
[51]         n               ( 4 1 1 );
[51]         delta           0.001;
[51]     }
[51]     hierarchicalCoeffs
[51]     {
[51]         n               ( 3 2 1 );
[51]         delta           0.001;
[51]         order           xyz;
[51]     }
[51]     manualCoeffs
[51]     {
[51]         dataFile        "cellDecomposition";
[51]     }
[51] }
[51] 
[51] Selecting decompositionMethod scotch
[85]  Foam::decompositionMethod::New 
[85] {
[85]     numberOfSubdomains 128;
[85]     method          scotch;
[85]     simpleCoeffs
[85]     {
[85]         n               ( 4 1 1 );
[85]         delta           0.001;
[85]     }
[85]     hierarchicalCoeffs
[85]     {
[85]         n               ( 3 2 1 );
[85]         delta           0.001;
[85]         order           xyz;
[85]     }
[85]     manualCoeffs
[85]     {
[85]         dataFile        "cellDecomposition";
[85]     }
[85] }
[85] 
[85] Selecting decompositionMethod scotch
[116]  Foam::decompositionMethod::New 
[116] {
[116]     numberOfSubdomains 128;
[116]     method          scotch;
[116]     simpleCoeffs
[116]     {
[116]         n               ( 4 1 1 );
[116]         delta           0.001;
[116]     }
[116]     hierarchicalCoeffs
[116]     {
[116]         n               ( 3 2 1 );
[116]         delta           0.001;
[116]         order           xyz;
[116]     }
[116]     manualCoeffs
[116]     {
[116]         dataFile        "cellDecomposition";
[116]     }
[116] }
[116] 
[116] Selecting decompositionMethod scotch
[52]  Foam::decompositionMethod::New 
[52] {
[52]     numberOfSubdomains 128;
[52]     method          scotch;
[52]     simpleCoeffs
[52]     {
[52]         n               ( 4 1 1 );
[52]         delta           0.001;
[52]     }
[52]     hierarchicalCoeffs
[52]     {
[52]         n               ( 3 2 1 );
[52]         delta           0.001;
[52]         order           xyz;
[52]     }
[52]     manualCoeffs
[52]     {
[52]         dataFile        "cellDecomposition";
[52]     }
[52] }
[52] 
[52] Selecting decompositionMethod scotch
[86]  Foam::decompositionMethod::New 
[86] {
[86]     numberOfSubdomains 128;
[86]     method          scotch;
[86]     simpleCoeffs
[86]     {
[86]         n               ( 4 1 1 );
[86]         delta           0.001;
[86]     }
[86]     hierarchicalCoeffs
[86]     {
[86]         n               ( 3 2 1 );
[86]         delta           0.001;
[86]         order           xyz;
[86]     }
[86]     manualCoeffs
[86]     {
[86]         dataFile        "cellDecomposition";
[86]     }
[86] }
[86] 
[86] Selecting decompositionMethod scotch
[117]  Foam::decompositionMethod::New 
[117] {
[117]     numberOfSubdomains 128;
[117]     method          scotch;
[117]     simpleCoeffs
[117]     {
[117]         n               ( 4 1 1 );
[117]         delta           0.001;
[117]     }
[117]     hierarchicalCoeffs
[117]     {
[117]         n               ( 3 2 1 );
[117]         delta           0.001;
[117]         order           xyz;
[117]     }
[117]     manualCoeffs
[117]     {
[117]         dataFile        "cellDecomposition";
[117]     }
[117] }
[117] 
[117] Selecting decompositionMethod scotch
[53]  Foam::decompositionMethod::New 
[53] {
[53]     numberOfSubdomains 128;
[53]     method          scotch;
[53]     simpleCoeffs
[53]     {
[53]         n               ( 4 1 1 );
[53]         delta           0.001;
[53]     }
[53]     hierarchicalCoeffs
[53]     {
[53]         n               ( 3 2 1 );
[53]         delta           0.001;
[53]         order           xyz;
[53]     }
[53]     manualCoeffs
[53]     {
[53]         dataFile        "cellDecomposition";
[53]     }
[53] }
[53] 
[53] Selecting decompositionMethod scotch
[87]  Foam::decompositionMethod::New 
[87] {
[87]     numberOfSubdomains 128;
[87]     method          scotch;
[87]     simpleCoeffs
[87]     {
[87]         n               ( 4 1 1 );
[87]         delta           0.001;
[87]     }
[87]     hierarchicalCoeffs
[87]     {
[87]         n               ( 3 2 1 );
[87]         delta           0.001;
[87]         order           xyz;
[87]     }
[87]     manualCoeffs
[87]     {
[87]         dataFile        "cellDecomposition";
[87]     }
[87] }
[87] 
[87] Selecting decompositionMethod scotch
[118]  Foam::decompositionMethod::New 
[118] {
[118]     numberOfSubdomains 128;
[118]     method          scotch;
[118]     simpleCoeffs
[118]     {
[118]         n               ( 4 1 1 );
[118]         delta           0.001;
[118]     }
[118]     hierarchicalCoeffs
[118]     {
[118]         n               ( 3 2 1 );
[118]         delta           0.001;
[118]         order           xyz;
[118]     }
[118]     manualCoeffs
[118]     {
[118]         dataFile        "cellDecomposition";
[118]     }
[118] }
[118] 
[118] Selecting decompositionMethod scotch
[54]  Foam::decompositionMethod::New 
[54] {
[54]     numberOfSubdomains 128;
[54]     method          scotch;
[54]     simpleCoeffs
[54]     {
[54]         n               ( 4 1 1 );
[54]         delta           0.001;
[54]     }
[54]     hierarchicalCoeffs
[54]     {
[54]         n               ( 3 2 1 );
[54]         delta           0.001;
[54]         order           xyz;
[54]     }
[54]     manualCoeffs
[54]     {
[54]         dataFile        "cellDecomposition";
[54]     }
[54] }
[54] 
[54] Selecting decompositionMethod scotch
[88]  Foam::decompositionMethod::New 
[88] {
[88]     numberOfSubdomains 128;
[88]     method          scotch;
[88]     simpleCoeffs
[88]     {
[88]         n               ( 4 1 1 );
[88]         delta           0.001;
[88]     }
[88]     hierarchicalCoeffs
[88]     {
[88]         n               ( 3 2 1 );
[88]         delta           0.001;
[88]         order           xyz;
[88]     }
[88]     manualCoeffs
[88]     {
[88]         dataFile        "cellDecomposition";
[88]     }
[88] }
[88] 
[88] Selecting decompositionMethod scotch
[119]  Foam::decompositionMethod::New 
[119] {
[119]     numberOfSubdomains 128;
[119]     method          scotch;
[119]     simpleCoeffs
[119]     {
[119]         n               ( 4 1 1 );
[119]         delta           0.001;
[119]     }
[119]     hierarchicalCoeffs
[119]     {
[119]         n               ( 3 2 1 );
[119]         delta           0.001;
[119]         order           xyz;
[119]     }
[119]     manualCoeffs
[119]     {
[119]         dataFile        "cellDecomposition";
[119]     }
[119] }
[119] 
[119] Selecting decompositionMethod scotch
[55]  Foam::decompositionMethod::New 
[55] {
[55]     numberOfSubdomains 128;
[55]     method          scotch;
[55]     simpleCoeffs
[55]     {
[55]         n               ( 4 1 1 );
[55]         delta           0.001;
[55]     }
[55]     hierarchicalCoeffs
[55]     {
[55]         n               ( 3 2 1 );
[55]         delta           0.001;
[55]         order           xyz;
[55]     }
[55]     manualCoeffs
[55]     {
[55]         dataFile        "cellDecomposition";
[55]     }
[55] }
[55] 
[55] Selecting decompositionMethod scotch
[89]  Foam::decompositionMethod::New 
[89] {
[89]     numberOfSubdomains 128;
[89]     method          scotch;
[89]     simpleCoeffs
[89]     {
[89]         n               ( 4 1 1 );
[89]         delta           0.001;
[89]     }
[89]     hierarchicalCoeffs
[89]     {
[89]         n               ( 3 2 1 );
[89]         delta           0.001;
[89]         order           xyz;
[89]     }
[89]     manualCoeffs
[89]     {
[89]         dataFile        "cellDecomposition";
[89]     }
[89] }
[89] 
[89] Selecting decompositionMethod scotch
[120]  Foam::decompositionMethod::New 
[120] {
[120]     numberOfSubdomains 128;
[120]     method          scotch;
[120]     simpleCoeffs
[120]     {
[120]         n               ( 4 1 1 );
[120]         delta           0.001;
[120]     }
[120]     hierarchicalCoeffs
[120]     {
[120]         n               ( 3 2 1 );
[120]         delta           0.001;
[120]         order           xyz;
[120]     }
[120]     manualCoeffs
[120]     {
[120]         dataFile        "cellDecomposition";
[120]     }
[120] }
[120] 
[120] Selecting decompositionMethod scotch
[56]  Foam::decompositionMethod::New 
[56] {
[56]     numberOfSubdomains 128;
[56]     method          scotch;
[56]     simpleCoeffs
[56]     {
[56]         n               ( 4 1 1 );
[56]         delta           0.001;
[56]     }
[56]     hierarchicalCoeffs
[56]     {
[56]         n               ( 3 2 1 );
[56]         delta           0.001;
[56]         order           xyz;
[56]     }
[56]     manualCoeffs
[56]     {
[56]         dataFile        "cellDecomposition";
[56]     }
[56] }
[56] 
[56] Selecting decompositionMethod scotch
[90]  Foam::decompositionMethod::New 
[90] {
[90]     numberOfSubdomains 128;
[90]     method          scotch;
[90]     simpleCoeffs
[90]     {
[90]         n               ( 4 1 1 );
[90]         delta           0.001;
[90]     }
[90]     hierarchicalCoeffs
[90]     {
[90]         n               ( 3 2 1 );
[90]         delta           0.001;
[90]         order           xyz;
[90]     }
[90]     manualCoeffs
[90]     {
[90]         dataFile        "cellDecomposition";
[90]     }
[90] }
[90] 
[90] Selecting decompositionMethod scotch
[121]  Foam::decompositionMethod::New 
[121] {
[121]     numberOfSubdomains 128;
[121]     method          scotch;
[121]     simpleCoeffs
[121]     {
[121]         n               ( 4 1 1 );
[121]         delta           0.001;
[121]     }
[121]     hierarchicalCoeffs
[121]     {
[121]         n               ( 3 2 1 );
[121]         delta           0.001;
[121]         order           xyz;
[121]     }
[121]     manualCoeffs
[121]     {
[121]         dataFile        "cellDecomposition";
[121]     }
[121] }
[121] 
[121] Selecting decompositionMethod scotch
[57]  Foam::decompositionMethod::New 
[57] {
[57]     numberOfSubdomains 128;
[57]     method          scotch;
[57]     simpleCoeffs
[57]     {
[57]         n               ( 4 1 1 );
[57]         delta           0.001;
[57]     }
[57]     hierarchicalCoeffs
[57]     {
[57]         n               ( 3 2 1 );
[57]         delta           0.001;
[57]         order           xyz;
[57]     }
[57]     manualCoeffs
[57]     {
[57]         dataFile        "cellDecomposition";
[57]     }
[57] }
[57] 
[57] Selecting decompositionMethod scotch
[91]  Foam::decompositionMethod::New 
[91] {
[91]     numberOfSubdomains 128;
[91]     method          scotch;
[91]     simpleCoeffs
[91]     {
[91]         n               ( 4 1 1 );
[91]         delta           0.001;
[91]     }
[91]     hierarchicalCoeffs
[91]     {
[91]         n               ( 3 2 1 );
[91]         delta           0.001;
[91]         order           xyz;
[91]     }
[91]     manualCoeffs
[91]     {
[91]         dataFile        "cellDecomposition";
[91]     }
[91] }
[91] 
[91] Selecting decompositionMethod scotch
[122]  Foam::decompositionMethod::New 
[122] {
[122]     numberOfSubdomains 128;
[122]     method          scotch;
[122]     simpleCoeffs
[122]     {
[122]         n               ( 4 1 1 );
[122]         delta           0.001;
[122]     }
[122]     hierarchicalCoeffs
[122]     {
[122]         n               ( 3 2 1 );
[122]         delta           0.001;
[122]         order           xyz;
[122]     }
[122]     manualCoeffs
[122]     {
[122]         dataFile        "cellDecomposition";
[122]     }
[122] }
[122] 
[122] Selecting decompositionMethod scotch
[58]  Foam::decompositionMethod::New 
[58] {
[58]     numberOfSubdomains 128;
[58]     method          scotch;
[58]     simpleCoeffs
[58]     {
[58]         n               ( 4 1 1 );
[58]         delta           0.001;
[58]     }
[58]     hierarchicalCoeffs
[58]     {
[58]         n               ( 3 2 1 );
[58]         delta           0.001;
[58]         order           xyz;
[58]     }
[58]     manualCoeffs
[58]     {
[58]         dataFile        "cellDecomposition";
[58]     }
[58] }
[58] 
[58] Selecting decompositionMethod scotch
[92]  Foam::decompositionMethod::New 
[92] {
[92]     numberOfSubdomains 128;
[92]     method          scotch;
[92]     simpleCoeffs
[92]     {
[92]         n               ( 4 1 1 );
[92]         delta           0.001;
[92]     }
[92]     hierarchicalCoeffs
[92]     {
[92]         n               ( 3 2 1 );
[92]         delta           0.001;
[92]         order           xyz;
[92]     }
[92]     manualCoeffs
[92]     {
[92]         dataFile        "cellDecomposition";
[92]     }
[92] }
[92] 
[92] Selecting decompositionMethod scotch
[123]  Foam::decompositionMethod::New 
[123] {
[123]     numberOfSubdomains 128;
[123]     method          scotch;
[123]     simpleCoeffs
[123]     {
[123]         n               ( 4 1 1 );
[123]         delta           0.001;
[123]     }
[123]     hierarchicalCoeffs
[123]     {
[123]         n               ( 3 2 1 );
[123]         delta           0.001;
[123]         order           xyz;
[123]     }
[123]     manualCoeffs
[123]     {
[123]         dataFile        "cellDecomposition";
[123]     }
[123] }
[123] 
[123] Selecting decompositionMethod scotch
[59]  Foam::decompositionMethod::New 
[59] {
[59]     numberOfSubdomains 128;
[59]     method          scotch;
[59]     simpleCoeffs
[59]     {
[59]         n               ( 4 1 1 );
[59]         delta           0.001;
[59]     }
[59]     hierarchicalCoeffs
[59]     {
[59]         n               ( 3 2 1 );
[59]         delta           0.001;
[59]         order           xyz;
[59]     }
[59]     manualCoeffs
[59]     {
[59]         dataFile        "cellDecomposition";
[59]     }
[59] }
[59] 
[59] Selecting decompositionMethod scotch
[93]  Foam::decompositionMethod::New 
[93] {
[93]     numberOfSubdomains 128;
[93]     method          scotch;
[93]     simpleCoeffs
[93]     {
[93]         n               ( 4 1 1 );
[93]         delta           0.001;
[93]     }
[93]     hierarchicalCoeffs
[93]     {
[93]         n               ( 3 2 1 );
[93]         delta           0.001;
[93]         order           xyz;
[93]     }
[93]     manualCoeffs
[93]     {
[93]         dataFile        "cellDecomposition";
[93]     }
[93] }
[93] 
[93] Selecting decompositionMethod scotch
[124]  Foam::decompositionMethod::New 
[124] {
[124]     numberOfSubdomains 128;
[124]     method          scotch;
[124]     simpleCoeffs
[124]     {
[124]         n               ( 4 1 1 );
[124]         delta           0.001;
[124]     }
[124]     hierarchicalCoeffs
[124]     {
[124]         n               ( 3 2 1 );
[124]         delta           0.001;
[124]         order           xyz;
[124]     }
[124]     manualCoeffs
[124]     {
[124]         dataFile        "cellDecomposition";
[124]     }
[124] }
[124] 
[124] Selecting decompositionMethod scotch
[60]  Foam::decompositionMethod::New 
[60] {
[60]     numberOfSubdomains 128;
[60]     method          scotch;
[60]     simpleCoeffs
[60]     {
[60]         n               ( 4 1 1 );
[60]         delta           0.001;
[60]     }
[60]     hierarchicalCoeffs
[60]     {
[60]         n               ( 3 2 1 );
[60]         delta           0.001;
[60]         order           xyz;
[60]     }
[60]     manualCoeffs
[60]     {
[60]         dataFile        "cellDecomposition";
[60]     }
[60] }
[60] 
[60] Selecting decompositionMethod scotch
[94]  Foam::decompositionMethod::New 
[94] {
[94]     numberOfSubdomains 128;
[94]     method          scotch;
[94]     simpleCoeffs
[94]     {
[94]         n               ( 4 1 1 );
[94]         delta           0.001;
[94]     }
[94]     hierarchicalCoeffs
[94]     {
[94]         n               ( 3 2 1 );
[94]         delta           0.001;
[94]         order           xyz;
[94]     }
[94]     manualCoeffs
[94]     {
[94]         dataFile        "cellDecomposition";
[94]     }
[94] }
[94] 
[94] Selecting decompositionMethod scotch
[125]  Foam::decompositionMethod::New 
[125] {
[125]     numberOfSubdomains 128;
[125]     method          scotch;
[125]     simpleCoeffs
[125]     {
[125]         n               ( 4 1 1 );
[125]         delta           0.001;
[125]     }
[125]     hierarchicalCoeffs
[125]     {
[125]         n               ( 3 2 1 );
[125]         delta           0.001;
[125]         order           xyz;
[125]     }
[125]     manualCoeffs
[125]     {
[125]         dataFile        "cellDecomposition";
[125]     }
[125] }
[125] 
[125] Selecting decompositionMethod scotch
[61]  Foam::decompositionMethod::New 
[61] {
[61]     numberOfSubdomains 128;
[61]     method          scotch;
[61]     simpleCoeffs
[61]     {
[61]         n               ( 4 1 1 );
[61]         delta           0.001;
[61]     }
[61]     hierarchicalCoeffs
[61]     {
[61]         n               ( 3 2 1 );
[61]         delta           0.001;
[61]         order           xyz;
[61]     }
[61]     manualCoeffs
[61]     {
[61]         dataFile        "cellDecomposition";
[61]     }
[61] }
[61] 
[61] Selecting decompositionMethod scotch
[95]  Foam::decompositionMethod::New 
[95] {
[95]     numberOfSubdomains 128;
[95]     method          scotch;
[95]     simpleCoeffs
[95]     {
[95]         n               ( 4 1 1 );
[95]         delta           0.001;
[95]     }
[95]     hierarchicalCoeffs
[95]     {
[95]         n               ( 3 2 1 );
[95]         delta           0.001;
[95]         order           xyz;
[95]     }
[95]     manualCoeffs
[95]     {
[95]         dataFile        "cellDecomposition";
[95]     }
[95] }
[95] 
[95] Selecting decompositionMethod scotch
[126]  Foam::decompositionMethod::New 
[126] {
[126]     numberOfSubdomains 128;
[126]     method          scotch;
[126]     simpleCoeffs
[126]     {
[126]         n               ( 4 1 1 );
[126]         delta           0.001;
[126]     }
[126]     hierarchicalCoeffs
[126]     {
[126]         n               ( 3 2 1 );
[126]         delta           0.001;
[126]         order           xyz;
[126]     }
[126]     manualCoeffs
[126]     {
[126]         dataFile        "cellDecomposition";
[126]     }
[126] }
[126] 
[126] Selecting decompositionMethod scotch
[62]  Foam::decompositionMethod::New 
[62] {
[62]     numberOfSubdomains 128;
[62]     method          scotch;
[62]     simpleCoeffs
[62]     {
[62]         n               ( 4 1 1 );
[62]         delta           0.001;
[62]     }
[62]     hierarchicalCoeffs
[62]     {
[62]         n               ( 3 2 1 );
[62]         delta           0.001;
[62]         order           xyz;
[62]     }
[62]     manualCoeffs
[62]     {
[62]         dataFile        "cellDecomposition";
[62]     }
[62] }
[62] 
[62] Selecting decompositionMethod scotch
[127]  Foam::decompositionMethod::New 
[127] {
[127]     numberOfSubdomains 128;
[127]     method          scotch;
[127]     simpleCoeffs
[127]     {
[127]         n               ( 4 1 1 );
[127]         delta           0.001;
[127]     }
[127]     hierarchicalCoeffs
[127]     {
[127]         n               ( 3 2 1 );
[127]         delta           0.001;
[127]         order           xyz;
[127]     }
[127]     manualCoeffs
[127]     {
[127]         dataFile        "cellDecomposition";
[127]     }
[127] }
[127] 
[127] Selecting decompositionMethod scotch
[63]  Foam::decompositionMethod::New 
[63] {
[63]     numberOfSubdomains 128;
[63]     method          scotch;
[63]     simpleCoeffs
[63]     {
[63]         n               ( 4 1 1 );
[63]         delta           0.001;
[63]     }
[63]     hierarchicalCoeffs
[63]     {
[63]         n               ( 3 2 1 );
[63]         delta           0.001;
[63]         order           xyz;
[63]     }
[63]     manualCoeffs
[63]     {
[63]         dataFile        "cellDecomposition";
[63]     }
[63] }
[63] 
[63] Selecting decompositionMethod scotch
[32]  Foam::decompositionMethod::New 
[32] {
[32]     numberOfSubdomains 128;
[32]     method          scotch;
[32]     simpleCoeffs
[32]     {
[32]         n               ( 4 1 1 );
[32]         delta           0.001;
[32]     }
[32]     hierarchicalCoeffs
[32]     {
[32]         n               ( 3 2 1 );
[32]         delta           0.001;
[32]         order           xyz;
[32]     }
[32]     manualCoeffs
[32]     {
[32]         dataFile        "cellDecomposition";
[32]     }
[32] }
[32] 
[32] Selecting decompositionMethod scotch
[33]  Foam::decompositionMethod::New 
[33] {
[33]     numberOfSubdomains 128;
[33]     method          scotch;
[33]     simpleCoeffs
[33]     {
[33]         n               ( 4 1 1 );
[33]         delta           0.001;
[33]     }
[33]     hierarchicalCoeffs
[33]     {
[33]         n               ( 3 2 1 );
[33]         delta           0.001;
[33]         order           xyz;
[33]     }
[33]     manualCoeffs
[33]     {
[33]         dataFile        "cellDecomposition";
[33]     }
[33] }
[33] 
[33] Selecting decompositionMethod scotch
Found point (3.0001 3.0001 0.43) in cell 11 on processor 68

Feature refinement iteration 0
------------------------------

Marked for refinement due to explicit features             : 26 cells.
Determined cells to refine in = 0.06 s
Selected for feature refinement : 26 cells (out of 10240)
Edge intersection testing:
    Number of edges             : 32895
    Number of edges to retest   : 920
    Number of intersected edges : 127
Refined mesh in = 0.01 s
After refinement feature refinement iteration 0 : cells:10422  faces:32895  points:12135
Cells per refinement level:
    0	10214
    1	208
Balanced mesh in = 0.14 s
After balancing feature refinement iteration 0 : cells:10422  faces:32895  points:12135
Cells per refinement level:
    0	10214
    1	208

Feature refinement iteration 1
------------------------------

Marked for refinement due to explicit features             : 100 cells.
Determined cells to refine in = 0.05 s
Selected for feature refinement : 116 cells (out of 10422)
Edge intersection testing:
    Number of edges             : 35637
    Number of edges to retest   : 3652
    Number of intersected edges : 726
Refined mesh in = 0.01 s
After refinement feature refinement iteration 1 : cells:11234  faces:35637  points:13274
Cells per refinement level:
    0	10198
    1	236
    2	800
Balanced mesh in = 0.17 s
After balancing feature refinement iteration 1 : cells:11234  faces:35637  points:13274
Cells per refinement level:
    0	10198
    1	236
    2	800

Feature refinement iteration 2
[...]
    non-orthogonality > 65  degrees                        : 0
    faces with face pyramid volume < 1e-13                 : 0
    faces with face-decomposition tet quality < 1e-15      : 0
    faces with concavity > 80  degrees                     : 0
    faces with skewness > 4   (internal) or 20  (boundary) : 0
    faces with interpolation weights (0..1)  < 0.02        : 0
    faces with volume ratio of neighbour cells < 0.01      : 0
    faces with face twist < 0.02                           : 0
    faces on cells with determinant < 0.001                : 0
displacementMedialAxis : Successfully moved mesh
displacementMedialAxis : Finished moving mesh ...
truncateDisplacement : Unextruded 0 faces due to non-consecutive vertices being extruded.
truncateDisplacement : Unextruded 0 faces due to stringed edges with inconsistent extrusion.

Setting up information for layer truncation ...

Checking mesh with layer ...
Checking faces in error :
    non-orthogonality > 65  degrees                        : 1
    faces with face pyramid volume < 1e-13                 : 0
    faces with face-decomposition tet quality < 1e-15      : 0
    faces with concavity > 80  degrees                     : 0
    faces with skewness > 4   (internal) or 20  (boundary) : 0
    faces with interpolation weights (0..1)  < 0.02        : 0
    faces with volume ratio of neighbour cells < 0.01      : 0
    faces with face twist < 0.02                           : 0
    faces on cells with determinant < 0.001                : 0
Detected 1 illegal faces (concave, zero area or negative cell pyramid volume)
Extruding 140754 out of 182931 faces (76.9438%). Removed extrusion at 1 faces.
Added 140755 out of 182931 cells (76.9443%).


Layer addition iteration 29
--------------------------

Determining displacement for added points according to pointNormal ...
Detected 0 points with point normal pointing through faces.
Reset displacement at 0 points to average of surrounding points.

displacementMedialAxis : Smoothing using Medial Axis ...
displacementMedialAxis : Reducing layer thickness at 525 nodes where thickness to medial axis distance is large 
displacementMedialAxis : Removing isolated regions ...
displacementMedialAxis : Number of isolated points extrusion stopped : 1
displacementMedialAxis : Smoothing field ...
    Iteration 0   residual 4.66317e-05
displacementMedialAxis : Moving mesh ...
displacementMedialAxis : Iteration 0
Moving mesh using displacement scaling : min:1  max:1
Checking faces in error :
    non-orthogonality > 65  degrees                        : 0
    faces with face pyramid volume < 1e-13                 : 0
    faces with face-decomposition tet quality < 1e-15      : 20
    faces with concavity > 80  degrees                     : 0
    faces with skewness > 4   (internal) or 20  (boundary) : 0
    faces with interpolation weights (0..1)  < 0.02        : 0
    faces with volume ratio of neighbour cells < 0.01      : 0
    faces with face twist < 0.02                           : 0
    faces on cells with determinant < 0.001                : 0
displacementMedialAxis : Iteration 1
Moving mesh using displacement scaling : min:0.75  max:1
Checking faces in error :
    non-orthogonality > 65  degrees                        : 0
    faces with face pyramid volume < 1e-13                 : 0
    faces with face-decomposition tet quality < 1e-15      : 3
    faces with concavity > 80  degrees                     : 0
    faces with skewness > 4   (internal) or 20  (boundary) : 0
    faces with interpolation weights (0..1)  < 0.02        : 0
    faces with volume ratio of neighbour cells < 0.01      : 0
    faces with face twist < 0.02                           : 0
    faces on cells with determinant < 0.001                : 0
displacementMedialAxis : Iteration 2
Moving mesh using displacement scaling : min:0.5625  max:1
Checking faces in error :
    non-orthogonality > 65  degrees                        : 0
    faces with face pyramid volume < 1e-13                 : 0
    faces with face-decomposition tet quality < 1e-15      : 1
    faces with concavity > 80  degrees                     : 0
    faces with skewness > 4   (internal) or 20  (boundary) : 0
    faces with interpolation weights (0..1)  < 0.02        : 0
    faces with volume ratio of neighbour cells < 0.01      : 0
    faces with face twist < 0.02                           : 0
    faces on cells with determinant < 0.001                : 0
displacementMedialAxis : Iteration 3
displacementMedialAxis : Displacement scaling for error reduction set to 0.
Moving mesh using displacement scaling : min:0.421875  max:1
Checking faces in error :
    non-orthogonality > 65  degrees                        : 0
    faces with face pyramid volume < 1e-13                 : 0
    faces with face-decomposition tet quality < 1e-15      : 1
    faces with concavity > 80  degrees                     : 0
    faces with skewness > 4   (internal) or 20  (boundary) : 0
    faces with interpolation weights (0..1)  < 0.02        : 0
    faces with volume ratio of neighbour cells < 0.01      : 0
    faces with face twist < 0.02                           : 0
    faces on cells with determinant < 0.001                : 0
displacementMedialAxis : Iteration 4
Moving mesh using displacement scaling : min:0  max:1
Checking faces in error :
    non-orthogonality > 65  degrees                        : 0
    faces with face pyramid volume < 1e-13                 : 0
    faces with face-decomposition tet quality < 1e-15      : 0
    faces with concavity > 80  degrees                     : 0
    faces with skewness > 4   (internal) or 20  (boundary) : 0
    faces with interpolation weights (0..1)  < 0.02        : 0
    faces with volume ratio of neighbour cells < 0.01      : 0
    faces with face twist < 0.02                           : 0
    faces on cells with determinant < 0.001                : 0
displacementMedialAxis : Successfully moved mesh
displacementMedialAxis : Finished moving mesh ...
truncateDisplacement : Unextruded 0 faces due to non-consecutive vertices being extruded.
truncateDisplacement : Unextruded 0 faces due to stringed edges with inconsistent extrusion.

Setting up information for layer truncation ...

Checking mesh with layer ...
Checking faces in error :
    non-orthogonality > 65  degrees                        : 1
    faces with face pyramid volume < 1e-13                 : 0
    faces with face-decomposition tet quality < 1e-15      : 0
    faces with concavity > 80  degrees                     : 0
    faces with skewness > 4   (internal) or 20  (boundary) : 0
    faces with interpolation weights (0..1)  < 0.02        : 0
    faces with volume ratio of neighbour cells < 0.01      : 0
    faces with face twist < 0.02                           : 0
    faces on cells with determinant < 0.001                : 0
Detected 1 illegal faces (concave, zero area or negative cell pyramid volume)
Extruding 140750 out of 182931 faces (76.9416%). Removed extrusion at 1 faces.
Added 140752 out of 182931 cells (76.9427%).


Layer addition iteration 30
--------------------------

Determining displacement for added points according to pointNormal ...
Detected 0 points with point normal pointing through faces.
Reset displacement at 0 points to average of surrounding points.

displacementMedialAxis : Smoothing using Medial Axis ...
displacementMedialAxis : Reducing layer thickness at 525 nodes where thickness to medial axis distance is large 
displacementMedialAxis : Removing isolated regions ...
displacementMedialAxis : Number of isolated points extrusion stopped : 1
displacementMedialAxis : Smoothing field ...
    Iteration 0   residual 4.66288e-05
displacementMedialAxis : Moving mesh ...
displacementMedialAxis : Iteration 0
Moving mesh using displacement scaling : min:1  max:1
Checking faces in error :
    non-orthogonality > 65  degrees                        : 0
    faces with face pyramid volume < 1e-13                 : 0
    faces with face-decomposition tet quality < 1e-15      : 20
    faces with concavity > 80  degrees                     : 0
    faces with skewness > 4   (internal) or 20  (boundary) : 0
    faces with interpolation weights (0..1)  < 0.02        : 0
    faces with volume ratio of neighbour cells < 0.01      : 0
    faces with face twist < 0.02                           : 0
    faces on cells with determinant < 0.001                : 0
displacementMedialAxis : Iteration 1
Moving mesh using displacement scaling : min:0.75  max:1
Checking faces in error :
    non-orthogonality > 65  degrees                        : 0
    faces with face pyramid volume < 1e-13                 : 0
    faces with face-decomposition tet quality < 1e-15      : 3
    faces with concavity > 80  degrees                     : 0
    faces with skewness > 4   (internal) or 20  (boundary) : 0
    faces with interpolation weights (0..1)  < 0.02        : 0
    faces with volume ratio of neighbour cells < 0.01      : 0
    faces with face twist < 0.02                           : 0
    faces on cells with determinant < 0.001                : 0
displacementMedialAxis : Iteration 2
Moving mesh using displacement scaling : min:0.5625  max:1
Checking faces in error :
    non-orthogonality > 65  degrees                        : 0
    faces with face pyramid volume < 1e-13                 : 0
    faces with face-decomposition tet quality < 1e-15      : 1
    faces with concavity > 80  degrees                     : 0
    faces with skewness > 4   (internal) or 20  (boundary) : 0
    faces with interpolation weights (0..1)  < 0.02        : 0
    faces with volume ratio of neighbour cells < 0.01      : 0
    faces with face twist < 0.02                           : 0
    faces on cells with determinant < 0.001                : 0
displacementMedialAxis : Iteration 3
displacementMedialAxis : Displacement scaling for error reduction set to 0.
Moving mesh using displacement scaling : min:0.421875  max:1
Checking faces in error :
    non-orthogonality > 65  degrees                        : 0
    faces with face pyramid volume < 1e-13                 : 0
    faces with face-decomposition tet quality < 1e-15      : 1
    faces with concavity > 80  degrees                     : 0
    faces with skewness > 4   (internal) or 20  (boundary) : 0
    faces with interpolation weights (0..1)  < 0.02        : 0
    faces with volume ratio of neighbour cells < 0.01      : 0
    faces with face twist < 0.02                           : 0
    faces on cells with determinant < 0.001                : 0
displacementMedialAxis : Iteration 4
Moving mesh using displacement scaling : min:0  max:1
Checking faces in error :
    non-orthogonality > 65  degrees                        : 0
    faces with face pyramid volume < 1e-13                 : 0
    faces with face-decomposition tet quality < 1e-15      : 0
    faces with concavity > 80  degrees                     : 0
    faces with skewness > 4   (internal) or 20  (boundary) : 0
    faces with interpolation weights (0..1)  < 0.02        : 0
    faces with volume ratio of neighbour cells < 0.01      : 0
    faces with face twist < 0.02                           : 0
    faces on cells with determinant < 0.001                : 0
displacementMedialAxis : Successfully moved mesh
displacementMedialAxis : Finished moving mesh ...
truncateDisplacement : Unextruded 0 faces due to non-consecutive vertices being extruded.
truncateDisplacement : Unextruded 0 faces due to stringed edges with inconsistent extrusion.

Setting up information for layer truncation ...

Checking mesh with layer ...
Checking faces in error :
    non-orthogonality > 65  degrees                        : 0
    faces with face pyramid volume < 1e-13                 : 0
    faces with face-decomposition tet quality < 1e-15      : 0
    faces with concavity > 80  degrees                     : 0
    faces with skewness > 4   (internal) or 20  (boundary) : 0
    faces with interpolation weights (0..1)  < 0.02        : 0
    faces with volume ratio of neighbour cells < 0.01      : 0
    faces with face twist < 0.02                           : 0
    faces on cells with determinant < 0.001                : 0
Detected 0 illegal faces (concave, zero area or negative cell pyramid volume)
Extruding 140749 out of 182931 faces (76.941%). Removed extrusion at 0 faces.
Added 140749 out of 182931 cells (76.941%).
Edge intersection testing:
    Number of edges             : 5906385
    Number of edges to retest   : 0
    Number of intersected edges : 290003

Doing final balancing
---------------------

Writing 140749 added cells to cellSet addedCells
Writing 0 faces inside added layer to faceSet layerFaces

Writing fields with layer information:
    nSurfaceLayers    : actual number of layers
    thickness         : overall layer thickness
    thicknessFraction : overall layer thickness (fraction of desired thickness)


patch                                            faces    layers   overall thickness
                                                                   [m]       [%]
-----                                            -----    ------   ---       ---
lowerWall                                        15847    0.994    0.0145    96.3    
motorBike_frt-fairing:001%1                      21720    0.722    0.00126   53.7    
motorBike_windshield:002%2                       184      0.957    0.00212   90.4    
motorBike_rr-wh-rim:005%5                        576      0.866    0.00103   44.1    
motorBike_rr-wh-rim:010%10                       1384     0.173    0.000275  11.7    
motorBike_fr-wh-rim:011%11                       1772     0.549    0.000602  25.7    
motorBike_fr-wh-brake-disk:012%12                256      1        0.00104   44.3    
motorBike_frame:016-shadow%13                    431      0.485    0.000415  17.8    
motorBike_rear-susp:014%14                       3602     0.797    0.00112   47.8    
motorBike_rear-susp:014-shadow%15                2122     0.778    0.00112   47.8    
motorBike_frame:016%16                           237      0.46     0.000382  16.4    
motorBike_rr-wh-rim:005-shadow%17                303      0.878    0.00112   47.8    
motorBike_rr-wh-chain-hub:022%22                 462      0.465    0.000343  15.1    
motorBike_rearseat%24                            1362     0.88     0.00174   68.1    
motorBike_frt-fairing%25                         2208     0.875    0.0015    63.2    
motorBike_windshield%26                          1484     0.505    0.000781  33.3    
motorBike_headlights%27                          585      0.979    0.00214   91.2    
motorBike_driversseat%28                         1599     0.786    0.00122   51.9    
motorBike_rear-body%29                           7423     0.887    0.00162   66.6    
motorBike_fuel-tank%30                           3234     0.917    0.0019    78      
motorBike_exhaust%31                             8484     0.704    0.0013    52.3    
motorBike_rr-wh-rim%32                           4367     0.882    0.00147   58.8    
motorBike_fr-mud-guard%33                        3130     0.555    0.000671  28.7    
motorBike_fr-wh-rim%34                           2205     0.912    0.00157   66.9    
motorBike_fr-wh-brake-disk%35                    1728     0.766    0.000745  31.9    
motorBike_fr-brake-caliper%36                    570      0.247    0.000193  8.25    
motorBike_fr-wh-tyre%37                          5045     0.736    0.00135   57.7    
motorBike_hbars%38                               2031     0.22     0.000228  9.71    
motorBike_fr-forks%39                            4366     0.717    0.0013    55.5    
motorBike_chain%40                               1783     0.116    7.99e-05  3.41    
motorBike_rr-wh-tyre%41                          4565     0.796    0.00173   59.1    
motorBike_square-dial%42                         20       1        0.00192   81.9    
motorBike_round-dial%43                          45       0.978    0.00102   43.4    
motorBike_dial-holder%44                         343      0.726    0.000702  30.2    
motorBike_rear-susp%45                           7100     0.769    0.000932  39.8    
motorBike_rear-brake-lights%46                   200      0.48     0.000417  18.2    
motorBike_rear-light-bracket%47                  634      0.833    0.00117   49.8    
motorBike_frame%48                               7642     0.797    0.00134   57.1    
motorBike_rear-mud-guard%49                      2573     0.49     0.000685  29.2    
motorBike_rear-susp-spring-damp%50               438      0.495    0.000456  19.5    
motorBike_fairing-inner-plate%51                 1557     0.801    0.00126   50.6    
motorBike_clutch-housing%52                      3775     0.966    0.00176   74.3    
motorBike_radiator%53                            430      0.167    7.63e-05  3.29    
motorBike_water-pipe%54                          326      0        0         0       
motorBike_water-pump%55                          266      0.391    0.000337  14.6    
motorBike_engine%56                              8713     0.902    0.00154   64.4    
motorBike_rear-shock-link%57                     105      0        0         0       
motorBike_rear-brake-fluid-pot-bracket%58        156      0.596    0.000593  25.3    
motorBike_rear-brake-fluid-pot%59                202      0.535    0.000324  14.1    
motorBike_footpeg%60                             344      0.343    0.00017   7.31    
motorBike_rr-wh-chain-hub%61                     450      0.638    0.000581  25.2    
motorBike_rear-brake-caliper%62                  573      0.38     0.000316  13.6    
motorBike_rider-helmet%65                        1805     0.966    0.00233   80      
motorBike_rider-visor%66                         543      1        0.00231   96.9    
motorBike_rider-boots%67                         3751     0.961    0.00197   83.7    
motorBike_rider-gloves%68                        1212     0.413    0.000716  30.6    
motorBike_rider-body%69                          14293    0.935    0.0022    81.1    
motorBike_frame:0%70                             141      0.667    0.00104   44.3    
motorBike_frt-fairing:001-shadow%74              13673    0.695    0.00125   53.2    
motorBike_windshield-shadow%75                   1023     0.464    0.000771  32.9    
motorBike_fr-mud-guard-shadow%81                 2010     0.513    0.000671  28.7    
motorBike_fr-wh-brake-disk-shadow%83             934      0.76     0.000757  32.4    
motorBike_rear-mud-guard-shadow%84               1638     0.441    0.000634  27.1    
motorBike_rear-susp-spring-damp-shadow%85        280      0.529    0.000547  23.4    
motorBike_radiator-shadow%86                     236      0.216    0.000123  5.26    
motorBike_rear-shock-link-shadow%87              62       0        0         0       
motorBike_rear-brake-fluid-pot-bracket-shadow%88 103      0.495    0.000466  19.9    
motorBike_rr-wh-chain-hub-shadow%89              270      0.626    0.000542  23.3    

Layer mesh : cells:1902563  faces:5906385  points:2123791
Cells per refinement level:
    0	9543
    1	4952
    2	16076
    3	48272
    4	991458
    5	127329
    6	704933
Writing mesh to time constant
Wrote mesh in = 67.83 s.
Layers added in = 67.83 s.
Checking final mesh ...
Checking faces in error :
    non-orthogonality > 65  degrees                        : 0
    faces with face pyramid volume < 1e-13                 : 0
    faces with face-decomposition tet quality < 1e-15      : 0
    faces with concavity > 80  degrees                     : 0
    faces with skewness > 4   (internal) or 20  (boundary) : 0
    faces with interpolation weights (0..1)  < 0.02        : 0
    faces with volume ratio of neighbour cells < 0.01      : 0
    faces with face twist < 0.02                           : 0
    faces on cells with determinant < 0.001                : 0
Finished meshing without any errors
Finished meshing in = 170.02 s.
End

Finalising parallel run
