Cleaning /rds/user/hpcbras1/hpc-work/csd3/cclake-roce-gcc9-ompi3-ucx/openfoam/Openfoam_Mbike_4 case
Running surfaceFeatureExtract on /rds/user/hpcbras1/hpc-work/csd3/cclake-roce-gcc9-ompi3-ucx/openfoam/Openfoam_Mbike_4
Running blockMesh on /rds/user/hpcbras1/hpc-work/csd3/cclake-roce-gcc9-ompi3-ucx/openfoam/Openfoam_Mbike_4
Running decomposePar on /rds/user/hpcbras1/hpc-work/csd3/cclake-roce-gcc9-ompi3-ucx/openfoam/Openfoam_Mbike_4
Running snappyHexMesh in parallel on /rds/user/hpcbras1/hpc-work/csd3/cclake-roce-gcc9-ompi3-ucx/openfoam/Openfoam_Mbike_4 using 128 processes
/*---------------------------------------------------------------------------*\
  =========                 |
  \\      /  F ield         | OpenFOAM: The Open Source CFD Toolbox
   \\    /   O peration     | Website:  https://openfoam.org
    \\  /    A nd           | Version:  7
     \\/     M anipulation  |
\*---------------------------------------------------------------------------*/
Build  : 7
Exec   : /home/hpcbras1/spack/opt/spack/linux-scientific7-skylake_avx512/gcc-9.1.0/openfoam-org-7-dahapwszurcwmfsxldhpukzh3tv4odmy/platforms/linux64GccDPInt32-spack/bin/simpleFoam -parallel
Date   : Oct 14 2020
Time   : 12:03:22
Host   : "cpu-p-291"
PID    : 144857
I/O    : uncollated
Case   : /rds/user/hpcbras1/hpc-work/csd3/cclake-roce-gcc9-ompi3-ucx/openfoam/Openfoam_Mbike_4
nProcs : 128
Slaves : 
127
(
"cpu-p-291.144858"
"cpu-p-291.144859"
"cpu-p-291.144860"
"cpu-p-291.144861"
"cpu-p-291.144862"
"cpu-p-291.144863"
"cpu-p-291.144864"
"cpu-p-291.144865"
"cpu-p-291.144866"
"cpu-p-291.144867"
"cpu-p-291.144868"
"cpu-p-291.144869"
"cpu-p-291.144870"
"cpu-p-291.144871"
"cpu-p-291.144872"
"cpu-p-291.144873"
"cpu-p-291.144874"
"cpu-p-291.144875"
"cpu-p-291.144876"
"cpu-p-291.144877"
"cpu-p-291.144878"
"cpu-p-291.144879"
"cpu-p-291.144880"
"cpu-p-291.144881"
"cpu-p-291.144882"
"cpu-p-291.144883"
"cpu-p-291.144884"
"cpu-p-291.144885"
"cpu-p-291.144886"
"cpu-p-291.144887"
"cpu-p-291.144888"
"cpu-p-292.253982"
"cpu-p-292.253983"
"cpu-p-292.253984"
"cpu-p-292.253985"
"cpu-p-292.253986"
"cpu-p-292.253987"
"cpu-p-292.253988"
"cpu-p-292.253989"
"cpu-p-292.253990"
"cpu-p-292.253991"
"cpu-p-292.253992"
"cpu-p-292.253993"
"cpu-p-292.253994"
"cpu-p-292.253995"
"cpu-p-292.253996"
"cpu-p-292.253997"
"cpu-p-292.253998"
"cpu-p-292.253999"
"cpu-p-292.254000"
"cpu-p-292.254001"
"cpu-p-292.254002"
"cpu-p-292.254003"
"cpu-p-292.254004"
"cpu-p-292.254005"
"cpu-p-292.254006"
"cpu-p-292.254007"
"cpu-p-292.254008"
"cpu-p-292.254009"
"cpu-p-292.254010"
"cpu-p-292.254011"
"cpu-p-292.254012"
"cpu-p-292.254013"
"cpu-p-293.16647"
"cpu-p-293.16648"
"cpu-p-293.16649"
"cpu-p-293.16650"
"cpu-p-293.16651"
"cpu-p-293.16652"
"cpu-p-293.16653"
"cpu-p-293.16654"
"cpu-p-293.16655"
"cpu-p-293.16656"
"cpu-p-293.16657"
"cpu-p-293.16658"
"cpu-p-293.16659"
"cpu-p-293.16660"
"cpu-p-293.16661"
"cpu-p-293.16662"
"cpu-p-293.16663"
"cpu-p-293.16664"
"cpu-p-293.16665"
"cpu-p-293.16666"
"cpu-p-293.16667"
"cpu-p-293.16668"
"cpu-p-293.16669"
"cpu-p-293.16670"
"cpu-p-293.16671"
"cpu-p-293.16672"
"cpu-p-293.16673"
"cpu-p-293.16674"
"cpu-p-293.16675"
"cpu-p-293.16676"
"cpu-p-293.16677"
"cpu-p-293.16678"
"cpu-p-294.236238"
"cpu-p-294.236239"
"cpu-p-294.236240"
"cpu-p-294.236241"
"cpu-p-294.236242"
"cpu-p-294.236243"
"cpu-p-294.236244"
"cpu-p-294.236245"
"cpu-p-294.236246"
"cpu-p-294.236247"
"cpu-p-294.236248"
"cpu-p-294.236249"
"cpu-p-294.236250"
"cpu-p-294.236251"
"cpu-p-294.236252"
"cpu-p-294.236253"
"cpu-p-294.236254"
"cpu-p-294.236255"
"cpu-p-294.236256"
"cpu-p-294.236257"
"cpu-p-294.236258"
"cpu-p-294.236259"
"cpu-p-294.236260"
"cpu-p-294.236261"
"cpu-p-294.236262"
"cpu-p-294.236263"
"cpu-p-294.236264"
"cpu-p-294.236265"
"cpu-p-294.236266"
"cpu-p-294.236267"
"cpu-p-294.236268"
"cpu-p-294.236269"
)

Pstream initialized with:
    floatTransfer      : 0
    nProcsSimpleSum    : 0
    commsType          : nonBlocking
    polling iterations : 0
sigFpe : Enabling floating point exception trapping (FOAM_SIGFPE).
fileModificationChecking : Monitoring run-time modified files using timeStampMaster (fileModificationSkew 10)
allowSystemOperations : Allowing user-supplied system call operations

// * * * * * * * * * * * * * * * * * * * * * * * * * * * * * * * * * * * * * //
Create time

Create mesh for time = 0


SIMPLE: No convergence criteria found

Reading field p

Reading field U

Reading/calculating face flux field phi

Selecting incompressible transport model Newtonian
Selecting turbulence model type RAS
Selecting RAS turbulence model kOmegaSST
Selecting patchDistMethod meshWave
RAS
{
    RASModel        kOmegaSST;
    turbulence      on;
    printCoeffs     on;
    alphaK1         0.85;
    alphaK2         1;
    alphaOmega1     0.5;
    alphaOmega2     0.856;
    gamma1          0.555556;
    gamma2          0.44;
    beta1           0.075;
    beta2           0.0828;
    betaStar        0.09;
    a1              0.31;
    b1              1;
    c1              10;
    F3              false;
}

No MRF models present

No finite volume options present

Starting time loop

Reading surface description:
    yNormal

forces forceCoeffs1:
    Not including porosity effects
forceCoeffs forceCoeffs1:
    Not including porosity effects
Time = 1

smoothSolver:  Solving for Ux, Initial residual = 1, Final residual = 0.0853542, No Iterations 14
smoothSolver:  Solving for Uy, Initial residual = 1, Final residual = 0.0945121, No Iterations 12
smoothSolver:  Solving for Uz, Initial residual = 1, Final residual = 0.0877438, No Iterations 13
GAMG:  Solving for p, Initial residual = 1, Final residual = 0.00413911, No Iterations 7
time step continuity errors : sum local = 0.000292794, global = 4.46318e-06, cumulative = 4.46318e-06
smoothSolver:  Solving for omega, Initial residual = 0.028506, Final residual = 0.00127653, No Iterations 3
bounding omega, min: -1487.33 max: 155308 average: 492.592
smoothSolver:  Solving for k, Initial residual = 1, Final residual = 0.0619908, No Iterations 4
ExecutionTime = 0.38 s  ClockTime = 0 s

forceCoeffs forceCoeffs1 write:
    Cm    = 12.3191
    Cd    = 26.6416
    Cl    = -1.79772
    Cl(f) = 11.4203
    Cl(r) = -13.218

Time = 2

smoothSolver:  Solving for Ux, Initial residual = 0.107124, Final residual = 0.0088508, No Iterations 12
smoothSolver:  Solving for Uy, Initial residual = 0.515134, Final residual = 0.0477869, No Iterations 11
smoothSolver:  Solving for Uz, Initial residual = 0.391847, Final residual = 0.0348732, No Iterations 11
GAMG:  Solving for p, Initial residual = 0.234332, Final residual = 0.000964466, No Iterations 5
time step continuity errors : sum local = 0.00427101, global = -1.65683e-05, cumulative = -1.21051e-05
smoothSolver:  Solving for omega, Initial residual = 0.999999, Final residual = 0.0593931, No Iterations 4
smoothSolver:  Solving for k, Initial residual = 0.978129, Final residual = 6.90677e-08, No Iterations 1
ExecutionTime = 0.49 s  ClockTime = 0 s

forceCoeffs forceCoeffs1 write:
    Cm    = 4.64999
    Cd    = 10.6776
    Cl    = -0.328508
    Cl(f) = 4.48574
    Cl(r) = -4.81424

Time = 3

smoothSolver:  Solving for Ux, Initial residual = 0.135202, Final residual = 0.0105308, No Iterations 5
smoothSolver:  Solving for Uy, Initial residual = 0.562432, Final residual = 0.0421663, No Iterations 6
smoothSolver:  Solving for Uz, Initial residual = 0.636367, Final residual = 0.0478071, No Iterations 5
GAMG:  Solving for p, Initial residual = 0.146243, Final residual = 0.000834934, No Iterations 5
time step continuity errors : sum local = 0.00293718, global = 4.18353e-07, cumulative = -1.16868e-05
smoothSolver:  Solving for omega, Initial residual = 0.538465, Final residual = 4.58046e-13, No Iterations 1
bounding omega, min: -1.04917e+09 max: 7.81468e+15 average: 1.31346e+10
smoothSolver:  Solving for k, Initial residual = 0.117541, Final residual = 8.52065e-08, No Iterations 1
ExecutionTime = 0.59 s  ClockTime = 1 s

forceCoeffs forceCoeffs1 write:
    Cm    = 3.13737
    Cd    = 7.29578
    Cl    = -1.69247
    Cl(f) = 2.29114
    Cl(r) = -3.98361

Time = 4

smoothSolver:  Solving for Ux, Initial residual = 0.0580459, Final residual = 0.00453424, No Iterations 6
smoothSolver:  Solving for Uy, Initial residual = 0.455682, Final residual = 0.0364133, No Iterations 6
smoothSolver:  Solving for Uz, Initial residual = 0.458351, Final residual = 0.0447959, No Iterations 5
GAMG:  Solving for p, Initial residual = 0.0746309, Final residual = 0.000356923, No Iterations 5
time step continuity errors : sum local = 0.00160188, global = -3.09624e-06, cumulative = -1.4783e-05
smoothSolver:  Solving for omega, Initial residual = 0.538465, Final residual = 1.01092e-12, No Iterations 1
bounding omega, min: -175406 max: 2.3444e+15 average: 3.94044e+09
smoothSolver:  Solving for k, Initial residual = 0.0275112, Final residual = 2.27579e-07, No Iterations 1
ExecutionTime = 0.7 s  ClockTime = 1 s

forceCoeffs forceCoeffs1 write:
    Cm    = 1.35157
    Cd    = 3.42648
    Cl    = -0.986878
    Cl(f) = 0.858129
    Cl(r) = -1.84501

Time = 5

smoothSolver:  Solving for Ux, Initial residual = 0.0250887, Final residual = 0.00216982, No Iterations 7
smoothSolver:  Solving for Uy, Initial residual = 0.352576, Final residual = 0.027084, No Iterations 7
smoothSolver:  Solving for Uz, Initial residual = 0.325202, Final residual = 0.0317499, No Iterations 6
GAMG:  Solving for p, Initial residual = 0.0590046, Final residual = 0.000472954, No Iterations 4
time step continuity errors : sum local = 0.00232117, global = -4.99284e-06, cumulative = -1.97759e-05
smoothSolver:  Solving for omega, Initial residual = 0.538465, Final residual = 2.62961e-12, No Iterations 1
bounding omega, min: -1845.56 max: 7.03321e+14 average: 1.18213e+09
smoothSolver:  Solving for k, Initial residual = 0.00708083, Final residual = 6.72304e-07, No Iterations 1
ExecutionTime = 0.8 s  ClockTime = 1 s

forceCoeffs forceCoeffs1 write:
    Cm    = 0.701958
    Cd    = 1.83602
    Cl    = -0.469133
    Cl(f) = 0.467392
    Cl(r) = -0.936524

Time = 6

smoothSolver:  Solving for Ux, Initial residual = 0.0177676, Final residual = 0.00153253, No Iterations 7
smoothSolver:  Solving for Uy, Initial residual = 0.304684, Final residual = 0.0252513, No Iterations 7
smoothSolver:  Solving for Uz, Initial residual = 0.26558, Final residual = 0.025586, No Iterations 6
GAMG:  Solving for p, Initial residual = 0.0520467, Final residual = 0.000373996, No Iterations 4
time step continuity errors : sum local = 0.00175684, global = 6.30986e-06, cumulative = -1.3466e-05
smoothSolver:  Solving for omega, Initial residual = 0.538465, Final residual = 6.46084e-12, No Iterations 1
bounding omega, min: -8.48816 max: 2.10996e+14 average: 3.54641e+08
smoothSolver:  Solving for k, Initial residual = 0.00189699, Final residual = 1.98792e-06, No Iterations 1
ExecutionTime = 0.89 s  ClockTime = 1 s

forceCoeffs forceCoeffs1 write:
    Cm    = 0.445833
    Cd    = 1.1429
    Cl    = -0.15969
    Cl(f) = 0.365987
    Cl(r) = -0.525678

Time = 7

smoothSolver:  Solving for Ux, Initial residual = 0.0134552, Final residual = 0.00123412, No Iterations 7
smoothSolver:  Solving for Uy, Initial residual = 0.260298, Final residual = 0.0235067, No Iterations 7
smoothSolver:  Solving for Uz, Initial residual = 0.231539, Final residual = 0.0184946, No Iterations 7
GAMG:  Solving for p, Initial residual = 0.0476934, Final residual = 0.000329914, No Iterations 4
time step continuity errors : sum local = 0.0014905, global = 1.63282e-05, cumulative = 2.86221e-06
smoothSolver:  Solving for omega, Initial residual = 0.538465, Final residual = 4.65504e-11, No Iterations 1
smoothSolver:  Solving for k, Initial residual = 0.000536232, Final residual = 6.12959e-06, No Iterations 1
ExecutionTime = 1 s  ClockTime = 1 s

forceCoeffs forceCoeffs1 write:
    Cm    = 0.348031
    Cd    = 0.832005
    Cl    = -0.0411424
    Cl(f) = 0.32746
    Cl(r) = -0.368603

Time = 8

smoothSolver:  Solving for Ux, Initial residual = 0.011124, Final residual = 0.00106157, No Iterations 7
smoothSolver:  Solving for Uy, Initial residual = 0.227799, Final residual = 0.0211839, No Iterations 7
smoothSolver:  Solving for Uz, Initial residual = 0.212109, Final residual = 0.0177074, No Iterations 7
GAMG:  Solving for p, Initial residual = 0.0449655, Final residual = 0.000303727, No Iterations 4
time step continuity errors : sum local = 0.00131523, global = 2.46518e-05, cumulative = 2.7514e-05
smoothSolver:  Solving for omega, Initial residual = 0.538465, Final residual = 1.18137e-10, No Iterations 1
bounding omega, min: -2005.48 max: 1.89897e+13 average: 3.19191e+07
smoothSolver:  Solving for k, Initial residual = 0.000192338, Final residual = 1.92292e-05, No Iterations 1
ExecutionTime = 1.09 s  ClockTime = 1 s

forceCoeffs forceCoeffs1 write:
    Cm    = 0.306944
    Cd    = 0.692521
    Cl    = -0.0222834
    Cl(f) = 0.295802
    Cl(r) = -0.318086

Time = 9

smoothSolver:  Solving for Ux, Initial residual = 0.00955629, Final residual = 0.000947193, No Iterations 7
smoothSolver:  Solving for Uy, Initial residual = 0.197192, Final residual = 0.0187576, No Iterations 7
smoothSolver:  Solving for Uz, Initial residual = 0.204618, Final residual = 0.0178271, No Iterations 7
GAMG:  Solving for p, Initial residual = 0.0431068, Final residual = 0.000286914, No Iterations 4
time step continuity errors : sum local = 0.00119946, global = 2.64854e-05, cumulative = 5.39994e-05
smoothSolver:  Solving for omega, Initial residual = 0.538465, Final residual = 2.07673e-10, No Iterations 1
smoothSolver:  Solving for k, Initial residual = 0.000187144, Final residual = 1.31944e-05, No Iterations 3
ExecutionTime = 1.19 s  ClockTime = 1 s

forceCoeffs forceCoeffs1 write:
    Cm    = 0.283306
    Cd    = 0.619932
    Cl    = -0.0443109
    Cl(f) = 0.261151
    Cl(r) = -0.305462

Time = 10

smoothSolver:  Solving for Ux, Initial residual = 0.00896998, Final residual = 0.000874536, No Iterations 7
smoothSolver:  Solving for Uy, Initial residual = 0.1839, Final residual = 0.0170212, No Iterations 7
smoothSolver:  Solving for Uz, Initial residual = 0.199429, Final residual = 0.0177071, No Iterations 7
GAMG:  Solving for p, Initial residual = 0.0413354, Final residual = 0.000277715, No Iterations 4
time step continuity errors : sum local = 0.00112296, global = 1.89256e-05, cumulative = 7.2925e-05
smoothSolver:  Solving for omega, Initial residual = 0.538465, Final residual = 7.33234e-10, No Iterations 1
smoothSolver:  Solving for k, Initial residual = 0.000474725, Final residual = 4.13346e-05, No Iterations 3
ExecutionTime = 1.29 s  ClockTime = 1 s

forceCoeffs forceCoeffs1 write:
    Cm    = 0.246972
    Cd    = 0.506268
    Cl    = -0.0220109
    Cl(f) = 0.235967
    Cl(r) = -0.257977

Time = 11

smoothSolver:  Solving for Ux, Initial residual = 0.00837578, Final residual = 0.000827414, No Iterations 7
smoothSolver:  Solving for Uy, Initial residual = 0.169365, Final residual = 0.0161182, No Iterations 7
smoothSolver:  Solving for Uz, Initial residual = 0.194708, Final residual = 0.0177484, No Iterations 7
GAMG:  Solving for p, Initial residual = 0.0400125, Final residual = 0.000275835, No Iterations 4
time step continuity errors : sum local = 0.00108508, global = 7.57719e-06, cumulative = 8.05022e-05
smoothSolver:  Solving for omega, Initial residual = 0.538464, Final residual = 2.41447e-09, No Iterations 1
smoothSolver:  Solving for k, Initial residual = 0.00135402, Final residual = 0.000113147, No Iterations 3
ExecutionTime = 1.39 s  ClockTime = 1 s

forceCoeffs forceCoeffs1 write:
    Cm    = 0.236345
    Cd    = 0.51872
    Cl    = -0.0581955
    Cl(f) = 0.207247
    Cl(r) = -0.265443

Time = 12

smoothSolver:  Solving for Ux, Initial residual = 0.00789799, Final residual = 0.00061941, No Iterations 8
smoothSolver:  Solving for Uy, Initial residual = 0.160662, Final residual = 0.0153342, No Iterations 7
smoothSolver:  Solving for Uz, Initial residual = 0.183987, Final residual = 0.0170916, No Iterations 7
GAMG:  Solving for p, Initial residual = 0.0387241, Final residual = 0.00026874, No Iterations 4
time step continuity errors : sum local = 0.00102115, global = 1.09301e-07, cumulative = 8.06115e-05
smoothSolver:  Solving for omega, Initial residual = 0.538463, Final residual = 8.55994e-09, No Iterations 1
smoothSolver:  Solving for k, Initial residual = 0.00280446, Final residual = 0.00023253, No Iterations 3
bounding k, min: -2.24514e-06 max: 584.488 average: 0.56084
ExecutionTime = 1.59 s  ClockTime = 2 s

forceCoeffs forceCoeffs1 write:
    Cm    = 0.229889
    Cd    = 0.499988
    Cl    = -0.0444415
    Cl(f) = 0.207668
    Cl(r) = -0.252109

Time = 13

smoothSolver:  Solving for Ux, Initial residual = 0.00684926, Final residual = 0.000597776, No Iterations 8
smoothSolver:  Solving for Uy, Initial residual = 0.14257, Final residual = 0.0117628, No Iterations 8
smoothSolver:  Solving for Uz, Initial residual = 0.166439, Final residual = 0.0131296, No Iterations 8
GAMG:  Solving for p, Initial residual = 0.0378063, Final residual = 0.000257855, No Iterations 4
time step continuity errors : sum local = 0.000942517, global = -4.60223e-06, cumulative = 7.60093e-05
smoothSolver:  Solving for omega, Initial residual = 0.538459, Final residual = 2.91226e-08, No Iterations 1
smoothSolver:  Solving for k, Initial residual = 0.00429824, Final residual = 0.000360475, No Iterations 3
bounding k, min: -1.44419e-05 max: 209.434 average: 0.577757
ExecutionTime = 1.72 s  ClockTime = 2 s

forceCoeffs forceCoeffs1 write:
    Cm    = 0.210556
    Cd    = 0.456498
    Cl    = -0.0396073
    Cl(f) = 0.190752
    Cl(r) = -0.23036

Time = 14

smoothSolver:  Solving for Ux, Initial residual = 0.00633332, Final residual = 0.000579438, No Iterations 8
smoothSolver:  Solving for Uy, Initial residual = 0.133232, Final residual = 0.0113885, No Iterations 8
smoothSolver:  Solving for Uz, Initial residual = 0.154943, Final residual = 0.0128434, No Iterations 8
GAMG:  Solving for p, Initial residual = 0.0371107, Final residual = 0.000244588, No Iterations 4
time step continuity errors : sum local = 0.000859184, global = -4.84898e-06, cumulative = 7.11603e-05
smoothSolver:  Solving for omega, Initial residual = 0.538446, Final residual = 9.33969e-08, No Iterations 1
smoothSolver:  Solving for k, Initial residual = 0.00566739, Final residual = 0.000434512, No Iterations 3
bounding k, min: -4.44331e-06 max: 430.813 average: 0.595703
ExecutionTime = 1.82 s  ClockTime = 2 s

forceCoeffs forceCoeffs1 write:
    Cm    = 0.200815
    Cd    = 0.442182
    Cl    = -0.0148819
    Cl(f) = 0.193374
    Cl(r) = -0.208256

Time = 15

smoothSolver:  Solving for Ux, Initial residual = 0.00621913, Final residual = 0.000574756, No Iterations 8
smoothSolver:  Solving for Uy, Initial residual = 0.12543, Final residual = 0.0110052, No Iterations 8
smoothSolver:  Solving for Uz, Initial residual = 0.147285, Final residual = 0.0125986, No Iterations 8
GAMG:  Solving for p, Initial residual = 0.0366352, Final residual = 0.000252574, No Iterations 4
time step continuity errors : sum local = 0.000845526, global = -2.88427e-06, cumulative = 6.8276e-05
smoothSolver:  Solving for omega, Initial residual = 0.538401, Final residual = 3.05164e-07, No Iterations 1
smoothSolver:  Solving for k, Initial residual = 0.00672842, Final residual = 0.000493049, No Iterations 3
bounding k, min: -5.23694e-08 max: 449.803 average: 0.611396
ExecutionTime = 1.93 s  ClockTime = 2 s

forceCoeffs forceCoeffs1 write:
    Cm    = 0.185438
    Cd    = 0.412857
    Cl    = 0.00538335
    Cl(f) = 0.18813
    Cl(r) = -0.182746

Time = 16

smoothSolver:  Solving for Ux, Initial residual = 0.00607172, Final residual = 0.000575264, No Iterations 8
smoothSolver:  Solving for Uy, Initial residual = 0.120157, Final residual = 0.0106344, No Iterations 8
smoothSolver:  Solving for Uz, Initial residual = 0.141584, Final residual = 0.0125026, No Iterations 8
GAMG:  Solving for p, Initial residual = 0.0364814, Final residual = 0.000249153, No Iterations 4
time step continuity errors : sum local = 0.000794854, global = -9.10062e-07, cumulative = 6.73659e-05
smoothSolver:  Solving for omega, Initial residual = 0.538232, Final residual = 1.08061e-06, No Iterations 1
smoothSolver:  Solving for k, Initial residual = 0.00837518, Final residual = 0.000506122, No Iterations 3
ExecutionTime = 2.03 s  ClockTime = 2 s

forceCoeffs forceCoeffs1 write:
    Cm    = 0.18322
    Cd    = 0.439439
    Cl    = 0.00938113
    Cl(f) = 0.187911
    Cl(r) = -0.178529

Time = 17

smoothSolver:  Solving for Ux, Initial residual = 0.00594541, Final residual = 0.000580436, No Iterations 8
smoothSolver:  Solving for Uy, Initial residual = 0.120844, Final residual = 0.0107284, No Iterations 8
smoothSolver:  Solving for Uz, Initial residual = 0.138681, Final residual = 0.0126059, No Iterations 8
GAMG:  Solving for p, Initial residual = 0.0364752, Final residual = 0.000238113, No Iterations 4
time step continuity errors : sum local = 0.00072289, global = -1.36196e-07, cumulative = 6.72297e-05
smoothSolver:  Solving for omega, Initial residual = 0.537444, Final residual = 3.90537e-06, No Iterations 1
bounding omega, min: -369.198 max: 3.73774e+08 average: 1749.53
smoothSolver:  Solving for k, Initial residual = 0.00736419, Final residual = 0.000543389, No Iterations 3
bounding k, min: -7.42919e-09 max: 571.855 average: 0.636913
ExecutionTime = 2.13 s  ClockTime = 2 s

forceCoeffs forceCoeffs1 write:
    Cm    = 0.183087
    Cd    = 0.423208
    Cl    = 0.0447686
    Cl(f) = 0.205471
    Cl(r) = -0.160703

Time = 18

smoothSolver:  Solving for Ux, Initial residual = 0.00580629, Final residual = 0.000573432, No Iterations 8
smoothSolver:  Solving for Uy, Initial residual = 0.119404, Final residual = 0.0109018, No Iterations 8
smoothSolver:  Solving for Uz, Initial residual = 0.13688, Final residual = 0.0125925, No Iterations 8
GAMG:  Solving for p, Initial residual = 0.03614, Final residual = 0.000247628, No Iterations 4
time step continuity errors : sum local = 0.000717551, global = 5.36877e-06, cumulative = 7.25985e-05
smoothSolver:  Solving for omega, Initial residual = 0.532443, Final residual = 1.47615e-05, No Iterations 1
bounding omega, min: -2648.85 max: 1.12132e+08 average: 1287.83
smoothSolver:  Solving for k, Initial residual = 0.00649052, Final residual = 0.000551772, No Iterations 3
ExecutionTime = 2.23 s  ClockTime = 2 s

forceCoeffs forceCoeffs1 write:
    Cm    = 0.167211
    Cd    = 0.403929
    Cl    = 0.0381561
    Cl(f) = 0.186289
    Cl(r) = -0.148132

Time = 19

smoothSolver:  Solving for Ux, Initial residual = 0.00534742, Final residual = 0.000443246, No Iterations 9
smoothSolver:  Solving for Uy, Initial residual = 0.104397, Final residual = 0.0103911, No Iterations 8
smoothSolver:  Solving for Uz, Initial residual = 0.123797, Final residual = 0.0122363, No Iterations 8
GAMG:  Solving for p, Initial residual = 0.0354512, Final residual = 0.000237815, No Iterations 4
time step continuity errors : sum local = 0.00066606, global = 4.23806e-06, cumulative = 7.68366e-05
smoothSolver:  Solving for omega, Initial residual = 0.493116, Final residual = 6.429e-05, No Iterations 1
smoothSolver:  Solving for k, Initial residual = 0.00637704, Final residual = 0.000542696, No Iterations 3
ExecutionTime = 2.33 s  ClockTime = 2 s

forceCoeffs forceCoeffs1 write:
    Cm    = 0.163925
    Cd    = 0.415514
    Cl    = 0.0228988
    Cl(f) = 0.175374
    Cl(r) = -0.152475

Time = 20

smoothSolver:  Solving for Ux, Initial residual = 0.00518391, Final residual = 0.00043806, No Iterations 9
smoothSolver:  Solving for Uy, Initial residual = 0.101293, Final residual = 0.00804384, No Iterations 9
smoothSolver:  Solving for Uz, Initial residual = 0.115623, Final residual = 0.00923946, No Iterations 9
GAMG:  Solving for p, Initial residual = 0.0351293, Final residual = 0.000262864, No Iterations 4
time step continuity errors : sum local = 0.000707248, global = 4.27726e-06, cumulative = 8.11138e-05
smoothSolver:  Solving for omega, Initial residual = 0.283984, Final residual = 0.000238792, No Iterations 1
smoothSolver:  Solving for k, Initial residual = 0.00792857, Final residual = 0.000557379, No Iterations 3
ExecutionTime = 2.43 s  ClockTime = 2 s

forceCoeffs forceCoeffs1 write:
    Cm    = 0.162312
    Cd    = 0.409605
    Cl    = 0.0198866
    Cl(f) = 0.172255
    Cl(r) = -0.152369

Time = 21

smoothSolver:  Solving for Ux, Initial residual = 0.00516393, Final residual = 0.000435204, No Iterations 9
smoothSolver:  Solving for Uy, Initial residual = 0.102532, Final residual = 0.0101177, No Iterations 8
smoothSolver:  Solving for Uz, Initial residual = 0.110328, Final residual = 0.00885621, No Iterations 9
GAMG:  Solving for p, Initial residual = 0.0347774, Final residual = 0.000298295, No Iterations 4
time step continuity errors : sum local = 0.000773654, global = 6.80531e-06, cumulative = 8.79191e-05
smoothSolver:  Solving for omega, Initial residual = 0.0526174, Final residual = 0.000401206, No Iterations 1
smoothSolver:  Solving for k, Initial residual = 0.0075474, Final residual = 0.000567781, No Iterations 3
ExecutionTime = 2.54 s  ClockTime = 3 s

forceCoeffs forceCoeffs1 write:
    Cm    = 0.165675
    Cd    = 0.427303
    Cl    = 0.00568018
    Cl(f) = 0.168515
    Cl(r) = -0.162835

Time = 22

smoothSolver:  Solving for Ux, Initial residual = 0.00485216, Final residual = 0.00042504, No Iterations 9
smoothSolver:  Solving for Uy, Initial residual = 0.102054, Final residual = 0.00803809, No Iterations 9
smoothSolver:  Solving for Uz, Initial residual = 0.102451, Final residual = 0.00849189, No Iterations 9
GAMG:  Solving for p, Initial residual = 0.0339062, Final residual = 0.000287602, No Iterations 4
time step continuity errors : sum local = 0.000723574, global = 7.9034e-06, cumulative = 9.58225e-05
smoothSolver:  Solving for omega, Initial residual = 0.00623867, Final residual = 0.000370701, No Iterations 1
smoothSolver:  Solving for k, Initial residual = 0.00616381, Final residual = 0.000586313, No Iterations 3
ExecutionTime = 2.64 s  ClockTime = 3 s

forceCoeffs forceCoeffs1 write:
    Cm    = 0.165945
    Cd    = 0.422064
    Cl    = 0.00309072
    Cl(f) = 0.16749
    Cl(r) = -0.164399

Time = 23

smoothSolver:  Solving for Ux, Initial residual = 0.00462823, Final residual = 0.000420448, No Iterations 9
smoothSolver:  Solving for Uy, Initial residual = 0.0964743, Final residual = 0.00823688, No Iterations 9
smoothSolver:  Solving for Uz, Initial residual = 0.0959467, Final residual = 0.00823415, No Iterations 9
GAMG:  Solving for p, Initial residual = 0.033075, Final residual = 0.000265543, No Iterations 4
time step continuity errors : sum local = 0.00064581, global = 6.93222e-06, cumulative = 0.000102755
smoothSolver:  Solving for omega, Initial residual = 0.00134282, Final residual = 6.438e-05, No Iterations 3
smoothSolver:  Solving for k, Initial residual = 0.00572635, Final residual = 0.000287478, No Iterations 4
ExecutionTime = 2.75 s  ClockTime = 3 s

forceCoeffs forceCoeffs1 write:
    Cm    = 0.167246
    Cd    = 0.424252
    Cl    = -0.00231299
    Cl(f) = 0.16609
    Cl(r) = -0.168403

Time = 24

smoothSolver:  Solving for Ux, Initial residual = 0.0044786, Final residual = 0.000417082, No Iterations 9
smoothSolver:  Solving for Uy, Initial residual = 0.094807, Final residual = 0.00836641, No Iterations 9
smoothSolver:  Solving for Uz, Initial residual = 0.090592, Final residual = 0.00788996, No Iterations 9
GAMG:  Solving for p, Initial residual = 0.0322139, Final residual = 0.000257182, No Iterations 4
time step continuity errors : sum local = 0.000607435, global = 5.50441e-06, cumulative = 0.000108259
smoothSolver:  Solving for omega, Initial residual = 0.00073497, Final residual = 5.65886e-05, No Iterations 3
smoothSolver:  Solving for k, Initial residual = 0.00575017, Final residual = 0.000285688, No Iterations 4
ExecutionTime = 2.85 s  ClockTime = 3 s

forceCoeffs forceCoeffs1 write:
    Cm    = 0.166976
    Cd    = 0.418591
    Cl    = -0.000244423
    Cl(f) = 0.166854
    Cl(r) = -0.167099

Time = 25

smoothSolver:  Solving for Ux, Initial residual = 0.00432986, Final residual = 0.000411301, No Iterations 9
smoothSolver:  Solving for Uy, Initial residual = 0.0926469, Final residual = 0.00832677, No Iterations 9
smoothSolver:  Solving for Uz, Initial residual = 0.0849018, Final residual = 0.00754187, No Iterations 9
GAMG:  Solving for p, Initial residual = 0.0313588, Final residual = 0.000250378, No Iterations 4
time step continuity errors : sum local = 0.000573835, global = 2.82983e-06, cumulative = 0.000111089
smoothSolver:  Solving for omega, Initial residual = 0.000654194, Final residual = 5.18881e-05, No Iterations 3
smoothSolver:  Solving for k, Initial residual = 0.00589334, Final residual = 0.000289596, No Iterations 4
ExecutionTime = 2.95 s  ClockTime = 3 s

forceCoeffs forceCoeffs1 write:
    Cm    = 0.1662
    Cd    = 0.415634
    Cl    = 0.00321028
    Cl(f) = 0.167806
    Cl(r) = -0.164595

Time = 26

smoothSolver:  Solving for Ux, Initial residual = 0.00420296, Final residual = 0.000404766, No Iterations 9
smoothSolver:  Solving for Uy, Initial residual = 0.0907815, Final residual = 0.00825311, No Iterations 9
smoothSolver:  Solving for Uz, Initial residual = 0.0808663, Final residual = 0.00728429, No Iterations 9
GAMG:  Solving for p, Initial residual = 0.0306049, Final residual = 0.000251417, No Iterations 4
time step continuity errors : sum local = 0.00056074, global = -2.04022e-06, cumulative = 0.000109049
smoothSolver:  Solving for omega, Initial residual = 0.000619584, Final residual = 4.8796e-05, No Iterations 3
smoothSolver:  Solving for k, Initial residual = 0.00568601, Final residual = 0.000290768, No Iterations 4
ExecutionTime = 3.05 s  ClockTime = 3 s

forceCoeffs forceCoeffs1 write:
    Cm    = 0.166706
    Cd    = 0.408405
    Cl    = 0.0169852
    Cl(f) = 0.175199
    Cl(r) = -0.158213

Time = 27

smoothSolver:  Solving for Ux, Initial residual = 0.00404369, Final residual = 0.000394597, No Iterations 9
smoothSolver:  Solving for Uy, Initial residual = 0.0869626, Final residual = 0.0080954, No Iterations 9
smoothSolver:  Solving for Uz, Initial residual = 0.0763586, Final residual = 0.00698763, No Iterations 9
GAMG:  Solving for p, Initial residual = 0.029916, Final residual = 0.000247803, No Iterations 4
time step continuity errors : sum local = 0.00053663, global = -8.59113e-06, cumulative = 0.000100458
smoothSolver:  Solving for omega, Initial residual = 0.000541951, Final residual = 4.59205e-05, No Iterations 3
smoothSolver:  Solving for k, Initial residual = 0.00551591, Final residual = 0.00028893, No Iterations 4
ExecutionTime = 3.15 s  ClockTime = 3 s

forceCoeffs forceCoeffs1 write:
    Cm    = 0.16846
    Cd    = 0.413598
    Cl    = 0.0228416
    Cl(f) = 0.179881
    Cl(r) = -0.157039

Time = 28

smoothSolver:  Solving for Ux, Initial residual = 0.00389056, Final residual = 0.000382642, No Iterations 9
smoothSolver:  Solving for Uy, Initial residual = 0.0837638, Final residual = 0.00793225, No Iterations 9
smoothSolver:  Solving for Uz, Initial residual = 0.0724797, Final residual = 0.0067338, No Iterations 9
GAMG:  Solving for p, Initial residual = 0.0292511, Final residual = 0.000238947, No Iterations 4
time step continuity errors : sum local = 0.000502862, global = -1.49019e-05, cumulative = 8.55558e-05
smoothSolver:  Solving for omega, Initial residual = 0.000516243, Final residual = 4.38972e-05, No Iterations 3
smoothSolver:  Solving for k, Initial residual = 0.00540196, Final residual = 0.000288275, No Iterations 4
ExecutionTime = 3.35 s  ClockTime = 3 s

forceCoeffs forceCoeffs1 write:
    Cm    = 0.169224
    Cd    = 0.410769
    Cl    = 0.0347362
    Cl(f) = 0.186592
    Cl(r) = -0.151855

Time = 29

smoothSolver:  Solving for Ux, Initial residual = 0.00373892, Final residual = 0.000369107, No Iterations 9
smoothSolver:  Solving for Uy, Initial residual = 0.0817137, Final residual = 0.00778137, No Iterations 9
smoothSolver:  Solving for Uz, Initial residual = 0.0687167, Final residual = 0.00648653, No Iterations 9
GAMG:  Solving for p, Initial residual = 0.0286492, Final residual = 0.000234506, No Iterations 4
time step continuity errors : sum local = 0.000479966, global = -1.90436e-05, cumulative = 6.65121e-05
smoothSolver:  Solving for omega, Initial residual = 0.000484376, Final residual = 4.19166e-05, No Iterations 3
smoothSolver:  Solving for k, Initial residual = 0.00533504, Final residual = 0.000288067, No Iterations 4
ExecutionTime = 3.55 s  ClockTime = 4 s

forceCoeffs forceCoeffs1 write:
    Cm    = 0.169784
    Cd    = 0.411134
    Cl    = 0.0409961
    Cl(f) = 0.190282
    Cl(r) = -0.149286

Time = 30

smoothSolver:  Solving for Ux, Initial residual = 0.00359135, Final residual = 0.000354443, No Iterations 9
smoothSolver:  Solving for Uy, Initial residual = 0.0802813, Final residual = 0.00767487, No Iterations 9
smoothSolver:  Solving for Uz, Initial residual = 0.065671, Final residual = 0.00624871, No Iterations 9
GAMG:  Solving for p, Initial residual = 0.0280437, Final residual = 0.000232108, No Iterations 4
time step continuity errors : sum local = 0.00046353, global = -2.1163e-05, cumulative = 4.53491e-05
smoothSolver:  Solving for omega, Initial residual = 0.000461063, Final residual = 4.018e-05, No Iterations 3
smoothSolver:  Solving for k, Initial residual = 0.00524567, Final residual = 0.000287264, No Iterations 4
ExecutionTime = 3.65 s  ClockTime = 4 s

forceCoeffs forceCoeffs1 write:
    Cm    = 0.170173
    Cd    = 0.407964
    Cl    = 0.0473283
    Cl(f) = 0.193837
    Cl(r) = -0.146509

Time = 31

smoothSolver:  Solving for Ux, Initial residual = 0.00342854, Final residual = 0.000341363, No Iterations 9
smoothSolver:  Solving for Uy, Initial residual = 0.078678, Final residual = 0.00757966, No Iterations 9
smoothSolver:  Solving for Uz, Initial residual = 0.062016, Final residual = 0.00594251, No Iterations 9
GAMG:  Solving for p, Initial residual = 0.0274211, Final residual = 0.000226864, No Iterations 4
time step continuity errors : sum local = 0.000443193, global = -2.2342e-05, cumulative = 2.30072e-05
smoothSolver:  Solving for omega, Initial residual = 0.000436325, Final residual = 3.8841e-05, No Iterations 3
smoothSolver:  Solving for k, Initial residual = 0.00523196, Final residual = 0.00028757, No Iterations 4
ExecutionTime = 3.75 s  ClockTime = 4 s

forceCoeffs forceCoeffs1 write:
    Cm    = 0.171678
    Cd    = 0.410162
    Cl    = 0.0487417
    Cl(f) = 0.196049
    Cl(r) = -0.147308

Time = 32

smoothSolver:  Solving for Ux, Initial residual = 0.00330609, Final residual = 0.000330065, No Iterations 9
smoothSolver:  Solving for Uy, Initial residual = 0.0766118, Final residual = 0.00735747, No Iterations 9
smoothSolver:  Solving for Uz, Initial residual = 0.0592002, Final residual = 0.00564698, No Iterations 9
GAMG:  Solving for p, Initial residual = 0.0268151, Final residual = 0.000213611, No Iterations 4
time step continuity errors : sum local = 0.000408207, global = -1.8749e-05, cumulative = 4.25813e-06
smoothSolver:  Solving for omega, Initial residual = 0.000415043, Final residual = 3.76463e-05, No Iterations 3
smoothSolver:  Solving for k, Initial residual = 0.00516484, Final residual = 0.000287976, No Iterations 4
ExecutionTime = 3.86 s  ClockTime = 4 s

forceCoeffs forceCoeffs1 write:
    Cm    = 0.173396
    Cd    = 0.409451
    Cl    = 0.0520955
    Cl(f) = 0.199444
    Cl(r) = -0.147349

Time = 33

smoothSolver:  Solving for Ux, Initial residual = 0.00319206, Final residual = 0.000254283, No Iterations 10
smoothSolver:  Solving for Uy, Initial residual = 0.0736189, Final residual = 0.00712833, No Iterations 9
smoothSolver:  Solving for Uz, Initial residual = 0.0563838, Final residual = 0.00541823, No Iterations 9
GAMG:  Solving for p, Initial residual = 0.0264322, Final residual = 0.000206056, No Iterations 4
time step continuity errors : sum local = 0.000384647, global = -1.50498e-05, cumulative = -1.07916e-05
smoothSolver:  Solving for omega, Initial residual = 0.000398316, Final residual = 3.64693e-05, No Iterations 3
smoothSolver:  Solving for k, Initial residual = 0.00514452, Final residual = 0.000287443, No Iterations 4
ExecutionTime = 3.97 s  ClockTime = 4 s

forceCoeffs forceCoeffs1 write:
    Cm    = 0.174685
    Cd    = 0.41135
    Cl    = 0.053957
    Cl(f) = 0.201664
    Cl(r) = -0.147707

Time = 34

smoothSolver:  Solving for Ux, Initial residual = 0.00308907, Final residual = 0.000247339, No Iterations 10
smoothSolver:  Solving for Uy, Initial residual = 0.0718348, Final residual = 0.00699275, No Iterations 9
smoothSolver:  Solving for Uz, Initial residual = 0.0545038, Final residual = 0.00527176, No Iterations 9
GAMG:  Solving for p, Initial residual = 0.0260342, Final residual = 0.00020592, No Iterations 4
time step continuity errors : sum local = 0.000374872, global = -1.18807e-05, cumulative = -2.26723e-05
smoothSolver:  Solving for omega, Initial residual = 0.00038863, Final residual = 3.54132e-05, No Iterations 3
smoothSolver:  Solving for k, Initial residual = 0.0051128, Final residual = 0.000285742, No Iterations 4
ExecutionTime = 4.07 s  ClockTime = 4 s

forceCoeffs forceCoeffs1 write:
    Cm    = 0.174435
    Cd    = 0.409758
    Cl    = 0.0571593
    Cl(f) = 0.203014
    Cl(r) = -0.145855

Time = 35

smoothSolver:  Solving for Ux, Initial residual = 0.00298349, Final residual = 0.000240669, No Iterations 10
smoothSolver:  Solving for Uy, Initial residual = 0.0695149, Final residual = 0.00681094, No Iterations 9
smoothSolver:  Solving for Uz, Initial residual = 0.0523839, Final residual = 0.00514673, No Iterations 9
GAMG:  Solving for p, Initial residual = 0.0255482, Final residual = 0.000209199, No Iterations 4
time step continuity errors : sum local = 0.000371835, global = -9.86418e-06, cumulative = -3.25365e-05
smoothSolver:  Solving for omega, Initial residual = 0.000372415, Final residual = 3.44593e-05, No Iterations 3
smoothSolver:  Solving for k, Initial residual = 0.0050483, Final residual = 0.000284119, No Iterations 4
ExecutionTime = 4.18 s  ClockTime = 4 s

forceCoeffs forceCoeffs1 write:
    Cm    = 0.173305
    Cd    = 0.40945
    Cl    = 0.0577128
    Cl(f) = 0.202161
    Cl(r) = -0.144448

Time = 36

smoothSolver:  Solving for Ux, Initial residual = 0.0028874, Final residual = 0.000234584, No Iterations 10
smoothSolver:  Solving for Uy, Initial residual = 0.0658573, Final residual = 0.00649474, No Iterations 9
smoothSolver:  Solving for Uz, Initial residual = 0.0508074, Final residual = 0.00506869, No Iterations 9
GAMG:  Solving for p, Initial residual = 0.0248244, Final residual = 0.000206782, No Iterations 4
time step continuity errors : sum local = 0.000360376, global = -8.191e-06, cumulative = -4.07275e-05
smoothSolver:  Solving for omega, Initial residual = 0.000361076, Final residual = 3.351e-05, No Iterations 3
smoothSolver:  Solving for k, Initial residual = 0.0049878, Final residual = 0.000282608, No Iterations 4
ExecutionTime = 4.28 s  ClockTime = 4 s

forceCoeffs forceCoeffs1 write:
    Cm    = 0.171691
    Cd    = 0.407342
    Cl    = 0.0580691
    Cl(f) = 0.200725
    Cl(r) = -0.142656

Time = 37

smoothSolver:  Solving for Ux, Initial residual = 0.00279936, Final residual = 0.000229414, No Iterations 10
smoothSolver:  Solving for Uy, Initial residual = 0.0618338, Final residual = 0.00489444, No Iterations 10
smoothSolver:  Solving for Uz, Initial residual = 0.0490656, Final residual = 0.00394321, No Iterations 10
GAMG:  Solving for p, Initial residual = 0.0240481, Final residual = 0.000202256, No Iterations 4
time step continuity errors : sum local = 0.000347364, global = -7.11962e-06, cumulative = -4.78471e-05
smoothSolver:  Solving for omega, Initial residual = 0.000350698, Final residual = 3.2525e-05, No Iterations 3
bounding omega, min: -65.6851 max: 155308 average: 914.386
smoothSolver:  Solving for k, Initial residual = 0.00491413, Final residual = 0.00027973, No Iterations 4
ExecutionTime = 4.39 s  ClockTime = 4 s

forceCoeffs forceCoeffs1 write:
    Cm    = 0.169685
    Cd    = 0.405489
    Cl    = 0.0572743
    Cl(f) = 0.198322
    Cl(r) = -0.141048

Time = 38

smoothSolver:  Solving for Ux, Initial residual = 0.00272797, Final residual = 0.000225686, No Iterations 10
smoothSolver:  Solving for Uy, Initial residual = 0.0578155, Final residual = 0.00463769, No Iterations 10
smoothSolver:  Solving for Uz, Initial residual = 0.0469706, Final residual = 0.00382701, No Iterations 10
GAMG:  Solving for p, Initial residual = 0.0230751, Final residual = 0.000191549, No Iterations 4
time step continuity errors : sum local = 0.000325181, global = -7.03089e-06, cumulative = -5.4878e-05
smoothSolver:  Solving for omega, Initial residual = 0.000338198, Final residual = 3.1468e-05, No Iterations 3
bounding omega, min: -36.9251 max: 155308 average: 912.771
smoothSolver:  Solving for k, Initial residual = 0.00481118, Final residual = 0.000274761, No Iterations 4
ExecutionTime = 4.53 s  ClockTime = 5 s

forceCoeffs forceCoeffs1 write:
    Cm    = 0.16755
    Cd    = 0.403237
    Cl    = 0.0562255
    Cl(f) = 0.195663
    Cl(r) = -0.139437

Time = 39

smoothSolver:  Solving for Ux, Initial residual = 0.00267069, Final residual = 0.00022242, No Iterations 10
smoothSolver:  Solving for Uy, Initial residual = 0.0543705, Final residual = 0.00440382, No Iterations 10
smoothSolver:  Solving for Uz, Initial residual = 0.0450336, Final residual = 0.0037015, No Iterations 10
GAMG:  Solving for p, Initial residual = 0.0221737, Final residual = 0.000181946, No Iterations 4
time step continuity errors : sum local = 0.000306117, global = -7.43048e-06, cumulative = -6.23085e-05
smoothSolver:  Solving for omega, Initial residual = 0.000327336, Final residual = 3.04536e-05, No Iterations 3
bounding omega, min: -20.0731 max: 155308 average: 911.374
smoothSolver:  Solving for k, Initial residual = 0.00470715, Final residual = 0.000267337, No Iterations 4
ExecutionTime = 4.67 s  ClockTime = 5 s

forceCoeffs forceCoeffs1 write:
    Cm    = 0.165502
    Cd    = 0.401648
    Cl    = 0.0557249
    Cl(f) = 0.193365
    Cl(r) = -0.13764

Time = 40

smoothSolver:  Solving for Ux, Initial residual = 0.00262643, Final residual = 0.000219363, No Iterations 10
smoothSolver:  Solving for Uy, Initial residual = 0.0517907, Final residual = 0.00422, No Iterations 10
smoothSolver:  Solving for Uz, Initial residual = 0.0434042, Final residual = 0.00357632, No Iterations 10
GAMG:  Solving for p, Initial residual = 0.0215208, Final residual = 0.000175142, No Iterations 4
time step continuity errors : sum local = 0.000292616, global = -7.87857e-06, cumulative = -7.0187e-05
smoothSolver:  Solving for omega, Initial residual = 0.000318213, Final residual = 2.96017e-05, No Iterations 3
bounding omega, min: -72.9751 max: 155308 average: 910.876
smoothSolver:  Solving for k, Initial residual = 0.00460678, Final residual = 0.00026036, No Iterations 4
ExecutionTime = 4.78 s  ClockTime = 5 s

forceCoeffs forceCoeffs1 write:
    Cm    = 0.163515
    Cd    = 0.400052
    Cl    = 0.0564288
    Cl(f) = 0.19173
    Cl(r) = -0.135301

Time = 41

smoothSolver:  Solving for Ux, Initial residual = 0.00258202, Final residual = 0.00021605, No Iterations 10
smoothSolver:  Solving for Uy, Initial residual = 0.0498869, Final residual = 0.00408556, No Iterations 10
smoothSolver:  Solving for Uz, Initial residual = 0.0420077, Final residual = 0.00344674, No Iterations 10
GAMG:  Solving for p, Initial residual = 0.0210638, Final residual = 0.000170838, No Iterations 4
time step continuity errors : sum local = 0.000283506, global = -8.13035e-06, cumulative = -7.83174e-05
smoothSolver:  Solving for omega, Initial residual = 0.000310052, Final residual = 2.89058e-05, No Iterations 3
bounding omega, min: -24.0114 max: 155308 average: 910.51
smoothSolver:  Solving for k, Initial residual = 0.00451263, Final residual = 0.00025458, No Iterations 4
ExecutionTime = 4.88 s  ClockTime = 5 s

forceCoeffs forceCoeffs1 write:
    Cm    = 0.161577
    Cd    = 0.398908
    Cl    = 0.0582692
    Cl(f) = 0.190712
    Cl(r) = -0.132443

Time = 42

smoothSolver:  Solving for Ux, Initial residual = 0.00254001, Final residual = 0.0002129, No Iterations 10
smoothSolver:  Solving for Uy, Initial residual = 0.048606, Final residual = 0.0040062, No Iterations 10
smoothSolver:  Solving for Uz, Initial residual = 0.0407557, Final residual = 0.00331755, No Iterations 10
GAMG:  Solving for p, Initial residual = 0.0206663, Final residual = 0.000166199, No Iterations 4
time step continuity errors : sum local = 0.000273858, global = -8.03966e-06, cumulative = -8.6357e-05
smoothSolver:  Solving for omega, Initial residual = 0.000301581, Final residual = 2.81937e-05, No Iterations 3
smoothSolver:  Solving for k, Initial residual = 0.00441922, Final residual = 0.000250419, No Iterations 4
ExecutionTime = 4.98 s  ClockTime = 5 s

forceCoeffs forceCoeffs1 write:
    Cm    = 0.159539
    Cd    = 0.397213
    Cl    = 0.0607309
    Cl(f) = 0.189905
    Cl(r) = -0.129174

Time = 43

smoothSolver:  Solving for Ux, Initial residual = 0.00249815, Final residual = 0.000210346, No Iterations 10
smoothSolver:  Solving for Uy, Initial residual = 0.0478508, Final residual = 0.0039596, No Iterations 10
smoothSolver:  Solving for Uz, Initial residual = 0.0396631, Final residual = 0.0031932, No Iterations 10
GAMG:  Solving for p, Initial residual = 0.0203316, Final residual = 0.000161554, No Iterations 4
time step continuity errors : sum local = 0.000264512, global = -7.73198e-06, cumulative = -9.4089e-05
smoothSolver:  Solving for omega, Initial residual = 0.000292432, Final residual = 2.74525e-05, No Iterations 3
smoothSolver:  Solving for k, Initial residual = 0.00432524, Final residual = 0.000245851, No Iterations 4
ExecutionTime = 5.08 s  ClockTime = 5 s

forceCoeffs forceCoeffs1 write:
    Cm    = 0.158128
    Cd    = 0.396273
    Cl    = 0.0629864
    Cl(f) = 0.189621
    Cl(r) = -0.126634

Time = 44

smoothSolver:  Solving for Ux, Initial residual = 0.00246168, Final residual = 0.000208432, No Iterations 10
smoothSolver:  Solving for Uy, Initial residual = 0.0476799, Final residual = 0.00394159, No Iterations 10
smoothSolver:  Solving for Uz, Initial residual = 0.0387149, Final residual = 0.00309593, No Iterations 10
GAMG:  Solving for p, Initial residual = 0.0199948, Final residual = 0.000158076, No Iterations 4
time step continuity errors : sum local = 0.000257177, global = -7.697e-06, cumulative = -0.000101786
smoothSolver:  Solving for omega, Initial residual = 0.00028485, Final residual = 2.66819e-05, No Iterations 3
smoothSolver:  Solving for k, Initial residual = 0.00423777, Final residual = 0.000239221, No Iterations 4
ExecutionTime = 5.21 s  ClockTime = 5 s

forceCoeffs forceCoeffs1 write:
    Cm    = 0.157544
    Cd    = 0.395899
    Cl    = 0.0647108
    Cl(f) = 0.189899
    Cl(r) = -0.125188

Time = 45

smoothSolver:  Solving for Ux, Initial residual = 0.00242751, Final residual = 0.000207014, No Iterations 10
smoothSolver:  Solving for Uy, Initial residual = 0.0478735, Final residual = 0.00396166, No Iterations 10
smoothSolver:  Solving for Uz, Initial residual = 0.0379117, Final residual = 0.00303903, No Iterations 10
GAMG:  Solving for p, Initial residual = 0.0195827, Final residual = 0.000156952, No Iterations 4
time step continuity errors : sum local = 0.000253897, global = -7.88823e-06, cumulative = -0.000109674
smoothSolver:  Solving for omega, Initial residual = 0.000278159, Final residual = 2.59901e-05, No Iterations 3
smoothSolver:  Solving for k, Initial residual = 0.00416053, Final residual = 0.000231906, No Iterations 4
ExecutionTime = 5.31 s  ClockTime = 5 s

forceCoeffs forceCoeffs1 write:
    Cm    = 0.157678
    Cd    = 0.396502
    Cl    = 0.0661107
    Cl(f) = 0.190733
    Cl(r) = -0.124622

Time = 46

smoothSolver:  Solving for Ux, Initial residual = 0.00240014, Final residual = 0.000205478, No Iterations 10
smoothSolver:  Solving for Uy, Initial residual = 0.0482294, Final residual = 0.00399296, No Iterations 10
smoothSolver:  Solving for Uz, Initial residual = 0.0373207, Final residual = 0.00300893, No Iterations 10
GAMG:  Solving for p, Initial residual = 0.0191186, Final residual = 0.000157565, No Iterations 4
time step continuity errors : sum local = 0.000253448, global = -7.5315e-06, cumulative = -0.000117206
smoothSolver:  Solving for omega, Initial residual = 0.000270815, Final residual = 2.51719e-05, No Iterations 3
smoothSolver:  Solving for k, Initial residual = 0.00409291, Final residual = 0.000225895, No Iterations 4
ExecutionTime = 5.42 s  ClockTime = 5 s

forceCoeffs forceCoeffs1 write:
    Cm    = 0.157968
    Cd    = 0.397076
    Cl    = 0.0675659
    Cl(f) = 0.191751
    Cl(r) = -0.124185

Time = 47

smoothSolver:  Solving for Ux, Initial residual = 0.00236636, Final residual = 0.000202938, No Iterations 10
smoothSolver:  Solving for Uy, Initial residual = 0.0484016, Final residual = 0.00400075, No Iterations 10
smoothSolver:  Solving for Uz, Initial residual = 0.0368577, Final residual = 0.00298007, No Iterations 10
GAMG:  Solving for p, Initial residual = 0.0186826, Final residual = 0.000153888, No Iterations 4
time step continuity errors : sum local = 0.000246136, global = -6.61725e-06, cumulative = -0.000123823
smoothSolver:  Solving for omega, Initial residual = 0.000263285, Final residual = 2.43937e-05, No Iterations 3
smoothSolver:  Solving for k, Initial residual = 0.0040076, Final residual = 0.000221455, No Iterations 4
ExecutionTime = 5.57 s  ClockTime = 6 s

forceCoeffs forceCoeffs1 write:
    Cm    = 0.158224
    Cd    = 0.397839
    Cl    = 0.0689995
    Cl(f) = 0.192724
    Cl(r) = -0.123724

Time = 48

smoothSolver:  Solving for Ux, Initial residual = 0.00232389, Final residual = 0.000198831, No Iterations 10
smoothSolver:  Solving for Uy, Initial residual = 0.048153, Final residual = 0.00395302, No Iterations 10
smoothSolver:  Solving for Uz, Initial residual = 0.0363188, Final residual = 0.00294236, No Iterations 10
GAMG:  Solving for p, Initial residual = 0.0182772, Final residual = 0.000149691, No Iterations 4
time step continuity errors : sum local = 0.000237818, global = -5.95264e-06, cumulative = -0.000129776
smoothSolver:  Solving for omega, Initial residual = 0.00025562, Final residual = 2.36871e-05, No Iterations 3
smoothSolver:  Solving for k, Initial residual = 0.00391181, Final residual = 0.000217707, No Iterations 4
ExecutionTime = 5.71 s  ClockTime = 6 s

forceCoeffs forceCoeffs1 write:
    Cm    = 0.158534
    Cd    = 0.39783
    Cl    = 0.0703469
    Cl(f) = 0.193708
    Cl(r) = -0.123361

Time = 49

smoothSolver:  Solving for Ux, Initial residual = 0.00227343, Final residual = 0.00019361, No Iterations 10
smoothSolver:  Solving for Uy, Initial residual = 0.0473176, Final residual = 0.00385091, No Iterations 10
smoothSolver:  Solving for Uz, Initial residual = 0.0357962, Final residual = 0.00289813, No Iterations 10
GAMG:  Solving for p, Initial residual = 0.0179435, Final residual = 0.000144617, No Iterations 4
time step continuity errors : sum local = 0.000228159, global = -5.72893e-06, cumulative = -0.000135505
smoothSolver:  Solving for omega, Initial residual = 0.000250306, Final residual = 2.30924e-05, No Iterations 3
smoothSolver:  Solving for k, Initial residual = 0.00381282, Final residual = 0.000214975, No Iterations 4
ExecutionTime = 5.83 s  ClockTime = 6 s

forceCoeffs forceCoeffs1 write:
    Cm    = 0.159287
    Cd    = 0.398549
    Cl    = 0.0706372
    Cl(f) = 0.194605
    Cl(r) = -0.123968

Time = 50

smoothSolver:  Solving for Ux, Initial residual = 0.00221969, Final residual = 0.000188707, No Iterations 10
smoothSolver:  Solving for Uy, Initial residual = 0.0462768, Final residual = 0.00373992, No Iterations 10
smoothSolver:  Solving for Uz, Initial residual = 0.0354309, Final residual = 0.00285582, No Iterations 10
GAMG:  Solving for p, Initial residual = 0.0176171, Final residual = 0.000141053, No Iterations 4
time step continuity errors : sum local = 0.000221205, global = -5.92478e-06, cumulative = -0.000141429
smoothSolver:  Solving for omega, Initial residual = 0.000240737, Final residual = 2.24651e-05, No Iterations 3
smoothSolver:  Solving for k, Initial residual = 0.00371688, Final residual = 0.000211946, No Iterations 4
ExecutionTime = 5.96 s  ClockTime = 6 s

forceCoeffs forceCoeffs1 write:
    Cm    = 0.160173
    Cd    = 0.398521
    Cl    = 0.0708775
    Cl(f) = 0.195612
    Cl(r) = -0.124734

Time = 51

smoothSolver:  Solving for Ux, Initial residual = 0.00216807, Final residual = 0.000185056, No Iterations 10
smoothSolver:  Solving for Uy, Initial residual = 0.0452223, Final residual = 0.00365318, No Iterations 10
smoothSolver:  Solving for Uz, Initial residual = 0.0350931, Final residual = 0.00282369, No Iterations 10
GAMG:  Solving for p, Initial residual = 0.0173067, Final residual = 0.000140194, No Iterations 4
time step continuity errors : sum local = 0.000218831, global = -6.15195e-06, cumulative = -0.000147581
smoothSolver:  Solving for omega, Initial residual = 0.000234406, Final residual = 2.1893e-05, No Iterations 3
smoothSolver:  Solving for k, Initial residual = 0.00364604, Final residual = 0.00020822, No Iterations 4
ExecutionTime = 6.06 s  ClockTime = 6 s

forceCoeffs forceCoeffs1 write:
    Cm    = 0.161012
    Cd    = 0.398625
    Cl    = 0.0708233
    Cl(f) = 0.196423
    Cl(r) = -0.1256

Time = 52

smoothSolver:  Solving for Ux, Initial residual = 0.00212318, Final residual = 0.000182955, No Iterations 10
smoothSolver:  Solving for Uy, Initial residual = 0.0441097, Final residual = 0.00359538, No Iterations 10
smoothSolver:  Solving for Uz, Initial residual = 0.034796, Final residual = 0.00281039, No Iterations 10
GAMG:  Solving for p, Initial residual = 0.0168817, Final residual = 0.000140828, No Iterations 4
time step continuity errors : sum local = 0.000218789, global = -6.31361e-06, cumulative = -0.000153895
smoothSolver:  Solving for omega, Initial residual = 0.000232467, Final residual = 2.12282e-05, No Iterations 3
smoothSolver:  Solving for k, Initial residual = 0.00357439, Final residual = 0.000204419, No Iterations 4
ExecutionTime = 6.18 s  ClockTime = 6 s

forceCoeffs forceCoeffs1 write:
    Cm    = 0.161306
    Cd    = 0.398058
    Cl    = 0.0709061
    Cl(f) = 0.196759
    Cl(r) = -0.125853

Time = 53

smoothSolver:  Solving for Ux, Initial residual = 0.00208282, Final residual = 0.000181146, No Iterations 10
smoothSolver:  Solving for Uy, Initial residual = 0.0429954, Final residual = 0.00354453, No Iterations 10
smoothSolver:  Solving for Uz, Initial residual = 0.0343549, Final residual = 0.00280872, No Iterations 10
GAMG:  Solving for p, Initial residual = 0.0164814, Final residual = 0.000140558, No Iterations 4
time step continuity errors : sum local = 0.000217619, global = -6.16472e-06, cumulative = -0.00016006
smoothSolver:  Solving for omega, Initial residual = 0.000222271, Final residual = 2.06464e-05, No Iterations 3
smoothSolver:  Solving for k, Initial residual = 0.00350228, Final residual = 0.000200452, No Iterations 4
ExecutionTime = 6.32 s  ClockTime = 6 s

forceCoeffs forceCoeffs1 write:
    Cm    = 0.161343
    Cd    = 0.398394
    Cl    = 0.0710348
    Cl(f) = 0.196861
    Cl(r) = -0.125826

Time = 54

smoothSolver:  Solving for Ux, Initial residual = 0.00204365, Final residual = 0.000178885, No Iterations 10
smoothSolver:  Solving for Uy, Initial residual = 0.0419444, Final residual = 0.00347641, No Iterations 10
smoothSolver:  Solving for Uz, Initial residual = 0.0337712, Final residual = 0.00278969, No Iterations 10
GAMG:  Solving for p, Initial residual = 0.0160338, Final residual = 0.000136534, No Iterations 4
time step continuity errors : sum local = 0.000210784, global = -5.51428e-06, cumulative = -0.000165574
smoothSolver:  Solving for omega, Initial residual = 0.000216848, Final residual = 2.01214e-05, No Iterations 3
smoothSolver:  Solving for k, Initial residual = 0.00341835, Final residual = 0.000195972, No Iterations 4
ExecutionTime = 6.47 s  ClockTime = 6 s

forceCoeffs forceCoeffs1 write:
    Cm    = 0.1609
    Cd    = 0.398529
    Cl    = 0.072127
    Cl(f) = 0.196964
    Cl(r) = -0.124837

Time = 55

smoothSolver:  Solving for Ux, Initial residual = 0.00199914, Final residual = 0.000175951, No Iterations 10
smoothSolver:  Solving for Uy, Initial residual = 0.0408774, Final residual = 0.00339064, No Iterations 10
smoothSolver:  Solving for Uz, Initial residual = 0.0329418, Final residual = 0.00273564, No Iterations 10
GAMG:  Solving for p, Initial residual = 0.0155418, Final residual = 0.000131266, No Iterations 4
time step continuity errors : sum local = 0.000202137, global = -4.3851e-06, cumulative = -0.000169959
smoothSolver:  Solving for omega, Initial residual = 0.000211932, Final residual = 1.96558e-05, No Iterations 3
smoothSolver:  Solving for k, Initial residual = 0.00333144, Final residual = 0.000191024, No Iterations 4
ExecutionTime = 6.59 s  ClockTime = 7 s

forceCoeffs forceCoeffs1 write:
    Cm    = 0.160248
    Cd    = 0.399628
    Cl    = 0.0736606
    Cl(f) = 0.197078
    Cl(r) = -0.123418

Time = 56

smoothSolver:  Solving for Ux, Initial residual = 0.0019555, Final residual = 0.000172345, No Iterations 10
smoothSolver:  Solving for Uy, Initial residual = 0.0399613, Final residual = 0.00330069, No Iterations 10
smoothSolver:  Solving for Uz, Initial residual = 0.0322324, Final residual = 0.00266347, No Iterations 10
GAMG:  Solving for p, Initial residual = 0.0150115, Final residual = 0.000127021, No Iterations 4
time step continuity errors : sum local = 0.000195092, global = -3.35624e-06, cumulative = -0.000173315
smoothSolver:  Solving for omega, Initial residual = 0.000206455, Final residual = 1.92216e-05, No Iterations 3
smoothSolver:  Solving for k, Initial residual = 0.00323072, Final residual = 0.000185091, No Iterations 4
ExecutionTime = 6.69 s  ClockTime = 7 s

forceCoeffs forceCoeffs1 write:
    Cm    = 0.159456
    Cd    = 0.40059
    Cl    = 0.0758288
    Cl(f) = 0.19737
    Cl(r) = -0.121542

Time = 57

smoothSolver:  Solving for Ux, Initial residual = 0.00191368, Final residual = 0.00016839, No Iterations 10
smoothSolver:  Solving for Uy, Initial residual = 0.039188, Final residual = 0.003214, No Iterations 10
smoothSolver:  Solving for Uz, Initial residual = 0.0315956, Final residual = 0.00258269, No Iterations 10
GAMG:  Solving for p, Initial residual = 0.0146057, Final residual = 0.000125759, No Iterations 4
time step continuity errors : sum local = 0.000192778, global = -2.26277e-06, cumulative = -0.000175578
smoothSolver:  Solving for omega, Initial residual = 0.000202741, Final residual = 1.8817e-05, No Iterations 3
smoothSolver:  Solving for k, Initial residual = 0.00312958, Final residual = 0.000178621, No Iterations 4
ExecutionTime = 6.79 s  ClockTime = 7 s

forceCoeffs forceCoeffs1 write:
    Cm    = 0.15892
    Cd    = 0.401789
    Cl    = 0.0777491
    Cl(f) = 0.197794
    Cl(r) = -0.120045

Time = 58

smoothSolver:  Solving for Ux, Initial residual = 0.00187247, Final residual = 0.000164043, No Iterations 10
smoothSolver:  Solving for Uy, Initial residual = 0.0385036, Final residual = 0.00313275, No Iterations 10
smoothSolver:  Solving for Uz, Initial residual = 0.0310862, Final residual = 0.00251054, No Iterations 10
GAMG:  Solving for p, Initial residual = 0.014299, Final residual = 0.000124446, No Iterations 4
time step continuity errors : sum local = 0.000190336, global = -1.19645e-06, cumulative = -0.000176774
smoothSolver:  Solving for omega, Initial residual = 0.000199437, Final residual = 1.84061e-05, No Iterations 3
smoothSolver:  Solving for k, Initial residual = 0.00303106, Final residual = 0.000171789, No Iterations 4
ExecutionTime = 6.92 s  ClockTime = 7 s

forceCoeffs forceCoeffs1 write:
    Cm    = 0.158587
    Cd    = 0.402638
    Cl    = 0.0792652
    Cl(f) = 0.19822
    Cl(r) = -0.118955

Time = 59

smoothSolver:  Solving for Ux, Initial residual = 0.00183194, Final residual = 0.000159713, No Iterations 10
smoothSolver:  Solving for Uy, Initial residual = 0.0377233, Final residual = 0.00304471, No Iterations 10
smoothSolver:  Solving for Uz, Initial residual = 0.0305777, Final residual = 0.00245351, No Iterations 10
GAMG:  Solving for p, Initial residual = 0.014165, Final residual = 0.000121733, No Iterations 4
time step continuity errors : sum local = 0.000185838, global = -3.53415e-07, cumulative = -0.000177128
smoothSolver:  Solving for omega, Initial residual = 0.000194282, Final residual = 1.80423e-05, No Iterations 3
smoothSolver:  Solving for k, Initial residual = 0.00294236, Final residual = 0.000165566, No Iterations 4
ExecutionTime = 7.03 s  ClockTime = 7 s

forceCoeffs forceCoeffs1 write:
    Cm    = 0.15851
    Cd    = 0.403511
    Cl    = 0.0800581
    Cl(f) = 0.198539
    Cl(r) = -0.118481

Time = 60

smoothSolver:  Solving for Ux, Initial residual = 0.00179227, Final residual = 0.000155548, No Iterations 10
smoothSolver:  Solving for Uy, Initial residual = 0.036823, Final residual = 0.00296118, No Iterations 10
smoothSolver:  Solving for Uz, Initial residual = 0.03004, Final residual = 0.00239776, No Iterations 10
GAMG:  Solving for p, Initial residual = 0.0141326, Final residual = 0.000117026, No Iterations 4
time step continuity errors : sum local = 0.0001783, global = 3.2298e-07, cumulative = -0.000176805
smoothSolver:  Solving for omega, Initial residual = 0.000189289, Final residual = 1.76707e-05, No Iterations 3
smoothSolver:  Solving for k, Initial residual = 0.00285282, Final residual = 0.000160453, No Iterations 4
ExecutionTime = 7.14 s  ClockTime = 7 s

forceCoeffs forceCoeffs1 write:
    Cm    = 0.158544
    Cd    = 0.403997
    Cl    = 0.080417
    Cl(f) = 0.198753
    Cl(r) = -0.118335

Time = 61

smoothSolver:  Solving for Ux, Initial residual = 0.00174468, Final residual = 0.00015127, No Iterations 10
smoothSolver:  Solving for Uy, Initial residual = 0.0356796, Final residual = 0.00287941, No Iterations 10
smoothSolver:  Solving for Uz, Initial residual = 0.0293379, Final residual = 0.00234399, No Iterations 10
GAMG:  Solving for p, Initial residual = 0.0140322, Final residual = 0.000112858, No Iterations 4
time step continuity errors : sum local = 0.000171576, global = 1.23172e-06, cumulative = -0.000175573
smoothSolver:  Solving for omega, Initial residual = 0.000184531, Final residual = 1.72843e-05, No Iterations 3
smoothSolver:  Solving for k, Initial residual = 0.00276679, Final residual = 0.000156078, No Iterations 4
ExecutionTime = 7.25 s  ClockTime = 7 s

forceCoeffs forceCoeffs1 write:
    Cm    = 0.158608
    Cd    = 0.404298
    Cl    = 0.080513
    Cl(f) = 0.198864
    Cl(r) = -0.118351

Time = 62

smoothSolver:  Solving for Ux, Initial residual = 0.00169165, Final residual = 0.000146868, No Iterations 10
smoothSolver:  Solving for Uy, Initial residual = 0.0343377, Final residual = 0.00277887, No Iterations 10
smoothSolver:  Solving for Uz, Initial residual = 0.0285566, Final residual = 0.00228925, No Iterations 10
GAMG:  Solving for p, Initial residual = 0.0138179, Final residual = 0.000110417, No Iterations 4
time step continuity errors : sum local = 0.000167531, global = 2.58281e-06, cumulative = -0.00017299
smoothSolver:  Solving for omega, Initial residual = 0.000180421, Final residual = 1.68685e-05, No Iterations 3
smoothSolver:  Solving for k, Initial residual = 0.00269245, Final residual = 0.000151847, No Iterations 4
ExecutionTime = 7.4 s  ClockTime = 7 s

forceCoeffs forceCoeffs1 write:
    Cm    = 0.158562
    Cd    = 0.404393
    Cl    = 0.0803966
    Cl(f) = 0.198761
    Cl(r) = -0.118364

Time = 63

smoothSolver:  Solving for Ux, Initial residual = 0.00163306, Final residual = 0.000141882, No Iterations 10
smoothSolver:  Solving for Uy, Initial residual = 0.0328407, Final residual = 0.00265813, No Iterations 10
smoothSolver:  Solving for Uz, Initial residual = 0.0276807, Final residual = 0.00223109, No Iterations 10
GAMG:  Solving for p, Initial residual = 0.013407, Final residual = 0.000109267, No Iterations 4
time step continuity errors : sum local = 0.000165498, global = 4.41471e-06, cumulative = -0.000168576
smoothSolver:  Solving for omega, Initial residual = 0.000176543, Final residual = 1.6456e-05, No Iterations 3
smoothSolver:  Solving for k, Initial residual = 0.00261879, Final residual = 0.000147834, No Iterations 4
ExecutionTime = 7.53 s  ClockTime = 8 s

forceCoeffs forceCoeffs1 write:
    Cm    = 0.158386
    Cd    = 0.40419
    Cl    = 0.0801144
    Cl(f) = 0.198444
    Cl(r) = -0.118329

Time = 64

smoothSolver:  Solving for Ux, Initial residual = 0.00157764, Final residual = 0.000137163, No Iterations 10
smoothSolver:  Solving for Uy, Initial residual = 0.0313192, Final residual = 0.00253647, No Iterations 10
smoothSolver:  Solving for Uz, Initial residual = 0.0267994, Final residual = 0.00217327, No Iterations 10
GAMG:  Solving for p, Initial residual = 0.01291, Final residual = 0.000107884, No Iterations 4
time step continuity errors : sum local = 0.000163249, global = 6.4555e-06, cumulative = -0.00016212
smoothSolver:  Solving for omega, Initial residual = 0.000172467, Final residual = 1.60321e-05, No Iterations 3
smoothSolver:  Solving for k, Initial residual = 0.0025473, Final residual = 0.00014366, No Iterations 4
ExecutionTime = 7.65 s  ClockTime = 8 s

forceCoeffs forceCoeffs1 write:
    Cm    = 0.158065
    Cd    = 0.403813
    Cl    = 0.0795048
    Cl(f) = 0.197817
    Cl(r) = -0.118312

Time = 65

smoothSolver:  Solving for Ux, Initial residual = 0.00153003, Final residual = 0.000133634, No Iterations 10
smoothSolver:  Solving for Uy, Initial residual = 0.0300937, Final residual = 0.0024285, No Iterations 10
smoothSolver:  Solving for Uz, Initial residual = 0.0260245, Final residual = 0.00212423, No Iterations 10
GAMG:  Solving for p, Initial residual = 0.0124966, Final residual = 0.000104252, No Iterations 4
time step continuity errors : sum local = 0.000157751, global = 7.43106e-06, cumulative = -0.000154689
smoothSolver:  Solving for omega, Initial residual = 0.00016941, Final residual = 1.56313e-05, No Iterations 3
smoothSolver:  Solving for k, Initial residual = 0.00248593, Final residual = 0.000138889, No Iterations 4
ExecutionTime = 7.75 s  ClockTime = 8 s

forceCoeffs forceCoeffs1 write:
    Cm    = 0.157621
    Cd    = 0.403229
    Cl    = 0.0787207
    Cl(f) = 0.196982
    Cl(r) = -0.118261

Time = 66

smoothSolver:  Solving for Ux, Initial residual = 0.00149209, Final residual = 0.000130595, No Iterations 10
smoothSolver:  Solving for Uy, Initial residual = 0.0292429, Final residual = 0.0023441, No Iterations 10
smoothSolver:  Solving for Uz, Initial residual = 0.025545, Final residual = 0.00208976, No Iterations 10
GAMG:  Solving for p, Initial residual = 0.0121949, Final residual = 9.98675e-05, No Iterations 4
time step continuity errors : sum local = 0.000151242, global = 7.20315e-06, cumulative = -0.000147486
smoothSolver:  Solving for omega, Initial residual = 0.000166699, Final residual = 1.53106e-05, No Iterations 3
smoothSolver:  Solving for k, Initial residual = 0.00243742, Final residual = 0.000135142, No Iterations 4
ExecutionTime = 7.86 s  ClockTime = 8 s

forceCoeffs forceCoeffs1 write:
    Cm    = 0.15714
    Cd    = 0.40271
    Cl    = 0.0776304
    Cl(f) = 0.195955
    Cl(r) = -0.118325

Time = 67

smoothSolver:  Solving for Ux, Initial residual = 0.00145976, Final residual = 0.000127685, No Iterations 10
smoothSolver:  Solving for Uy, Initial residual = 0.0286652, Final residual = 0.00228123, No Iterations 10
smoothSolver:  Solving for Uz, Initial residual = 0.02537, Final residual = 0.00206935, No Iterations 10
GAMG:  Solving for p, Initial residual = 0.011941, Final residual = 9.72346e-05, No Iterations 4
time step continuity errors : sum local = 0.000147457, global = 6.59042e-06, cumulative = -0.000140896
smoothSolver:  Solving for omega, Initial residual = 0.000164315, Final residual = 1.50352e-05, No Iterations 3
smoothSolver:  Solving for k, Initial residual = 0.0024044, Final residual = 0.000133185, No Iterations 4
ExecutionTime = 7.97 s  ClockTime = 8 s

forceCoeffs forceCoeffs1 write:
    Cm    = 0.156707
    Cd    = 0.40216
    Cl    = 0.0763672
    Cl(f) = 0.194891
    Cl(r) = -0.118524

Time = 68

smoothSolver:  Solving for Ux, Initial residual = 0.00143122, Final residual = 0.000124619, No Iterations 10
smoothSolver:  Solving for Uy, Initial residual = 0.0282298, Final residual = 0.00223041, No Iterations 10
smoothSolver:  Solving for Uz, Initial residual = 0.0254242, Final residual = 0.00206283, No Iterations 10
GAMG:  Solving for p, Initial residual = 0.0117194, Final residual = 9.66122e-05, No Iterations 4
time step continuity errors : sum local = 0.000146729, global = 6.03343e-06, cumulative = -0.000134862
smoothSolver:  Solving for omega, Initial residual = 0.000162184, Final residual = 1.48033e-05, No Iterations 3
smoothSolver:  Solving for k, Initial residual = 0.00238037, Final residual = 0.000132155, No Iterations 4
ExecutionTime = 8.09 s  ClockTime = 8 s

forceCoeffs forceCoeffs1 write:
    Cm    = 0.156545
    Cd    = 0.401902
    Cl    = 0.0748069
    Cl(f) = 0.193948
    Cl(r) = -0.119141

Time = 69

smoothSolver:  Solving for Ux, Initial residual = 0.00140129, Final residual = 0.000121101, No Iterations 10
smoothSolver:  Solving for Uy, Initial residual = 0.0277991, Final residual = 0.00275899, No Iterations 9
smoothSolver:  Solving for Uz, Initial residual = 0.0255319, Final residual = 0.00205394, No Iterations 10
GAMG:  Solving for p, Initial residual = 0.0115545, Final residual = 9.76826e-05, No Iterations 4
time step continuity errors : sum local = 0.000148666, global = 5.55511e-06, cumulative = -0.000129307
smoothSolver:  Solving for omega, Initial residual = 0.000160586, Final residual = 1.46389e-05, No Iterations 3
bounding omega, min: -768.181 max: 155308 average: 931.272
smoothSolver:  Solving for k, Initial residual = 0.00235863, Final residual = 0.000130793, No Iterations 4
ExecutionTime = 8.19 s  ClockTime = 8 s

forceCoeffs forceCoeffs1 write:
    Cm    = 0.156686
    Cd    = 0.401784
    Cl    = 0.0733968
    Cl(f) = 0.193384
    Cl(r) = -0.119988

Time = 70

smoothSolver:  Solving for Ux, Initial residual = 0.00136969, Final residual = 0.000117162, No Iterations 10
smoothSolver:  Solving for Uy, Initial residual = 0.0274385, Final residual = 0.00269939, No Iterations 9
smoothSolver:  Solving for Uz, Initial residual = 0.0255757, Final residual = 0.00204126, No Iterations 10
GAMG:  Solving for p, Initial residual = 0.0114046, Final residual = 9.82106e-05, No Iterations 4
time step continuity errors : sum local = 0.000149747, global = 4.7615e-06, cumulative = -0.000124545
smoothSolver:  Solving for omega, Initial residual = 0.000158576, Final residual = 1.43546e-05, No Iterations 3
smoothSolver:  Solving for k, Initial residual = 0.00233622, Final residual = 0.00012934, No Iterations 4
ExecutionTime = 8.29 s  ClockTime = 8 s

forceCoeffs forceCoeffs1 write:
    Cm    = 0.157113
    Cd    = 0.401932
    Cl    = 0.0721107
    Cl(f) = 0.193168
    Cl(r) = -0.121058

Time = 71

smoothSolver:  Solving for Ux, Initial residual = 0.00133665, Final residual = 0.000113212, No Iterations 10
smoothSolver:  Solving for Uy, Initial residual = 0.0269354, Final residual = 0.00262793, No Iterations 9
smoothSolver:  Solving for Uz, Initial residual = 0.0254931, Final residual = 0.00201763, No Iterations 10
GAMG:  Solving for p, Initial residual = 0.0112432, Final residual = 9.76674e-05, No Iterations 4
time step continuity errors : sum local = 0.000149148, global = 3.67745e-06, cumulative = -0.000120868
smoothSolver:  Solving for omega, Initial residual = 0.000156274, Final residual = 1.41085e-05, No Iterations 3
smoothSolver:  Solving for k, Initial residual = 0.00231674, Final residual = 0.000128213, No Iterations 4
ExecutionTime = 8.4 s  ClockTime = 8 s

forceCoeffs forceCoeffs1 write:
    Cm    = 0.15765
    Cd    = 0.402082
    Cl    = 0.0713042
    Cl(f) = 0.193302
    Cl(r) = -0.121998

Time = 72

smoothSolver:  Solving for Ux, Initial residual = 0.00130064, Final residual = 0.000109268, No Iterations 10
smoothSolver:  Solving for Uy, Initial residual = 0.0264126, Final residual = 0.00255376, No Iterations 9
smoothSolver:  Solving for Uz, Initial residual = 0.0252752, Final residual = 0.00250743, No Iterations 9
GAMG:  Solving for p, Initial residual = 0.0110785, Final residual = 9.39867e-05, No Iterations 4
time step continuity errors : sum local = 0.000143691, global = 2.10988e-06, cumulative = -0.000118758
smoothSolver:  Solving for omega, Initial residual = 0.000154146, Final residual = 1.38854e-05, No Iterations 3
smoothSolver:  Solving for k, Initial residual = 0.00229773, Final residual = 0.000127148, No Iterations 4
ExecutionTime = 8.52 s  ClockTime = 9 s

forceCoeffs forceCoeffs1 write:
    Cm    = 0.158124
    Cd    = 0.402253
    Cl    = 0.0708356
    Cl(f) = 0.193542
    Cl(r) = -0.122706

Time = 73

smoothSolver:  Solving for Ux, Initial residual = 0.00126864, Final residual = 0.000105776, No Iterations 10
smoothSolver:  Solving for Uy, Initial residual = 0.0258544, Final residual = 0.00248611, No Iterations 9
smoothSolver:  Solving for Uz, Initial residual = 0.0251421, Final residual = 0.00247533, No Iterations 9
GAMG:  Solving for p, Initial residual = 0.0109809, Final residual = 9.13771e-05, No Iterations 4
time step continuity errors : sum local = 0.0001398, global = -3.38088e-08, cumulative = -0.000118792
smoothSolver:  Solving for omega, Initial residual = 0.000152143, Final residual = 1.36656e-05, No Iterations 3
smoothSolver:  Solving for k, Initial residual = 0.0022776, Final residual = 0.000126014, No Iterations 4
ExecutionTime = 8.62 s  ClockTime = 9 s

forceCoeffs forceCoeffs1 write:
    Cm    = 0.158391
    Cd    = 0.402286
    Cl    = 0.0707938
    Cl(f) = 0.193788
    Cl(r) = -0.122994

Time = 74

smoothSolver:  Solving for Ux, Initial residual = 0.00123824, Final residual = 0.000102708, No Iterations 10
smoothSolver:  Solving for Uy, Initial residual = 0.0254059, Final residual = 0.00243226, No Iterations 9
smoothSolver:  Solving for Uz, Initial residual = 0.024897, Final residual = 0.00242914, No Iterations 9
GAMG:  Solving for p, Initial residual = 0.0109025, Final residual = 8.89005e-05, No Iterations 4
time step continuity errors : sum local = 0.000136043, global = -2.30912e-06, cumulative = -0.000121101
smoothSolver:  Solving for omega, Initial residual = 0.000151055, Final residual = 1.35063e-05, No Iterations 3
smoothSolver:  Solving for k, Initial residual = 0.00226162, Final residual = 0.000125268, No Iterations 4
ExecutionTime = 8.75 s  ClockTime = 9 s

forceCoeffs forceCoeffs1 write:
    Cm    = 0.158381
    Cd    = 0.402371
    Cl    = 0.0708956
    Cl(f) = 0.193829
    Cl(r) = -0.122933

Time = 75

smoothSolver:  Solving for Ux, Initial residual = 0.00121126, Final residual = 0.000100027, No Iterations 10
smoothSolver:  Solving for Uy, Initial residual = 0.0251171, Final residual = 0.00239378, No Iterations 9
smoothSolver:  Solving for Uz, Initial residual = 0.0245425, Final residual = 0.00237654, No Iterations 9
GAMG:  Solving for p, Initial residual = 0.0108136, Final residual = 8.74552e-05, No Iterations 4
time step continuity errors : sum local = 0.000133805, global = -3.5477e-06, cumulative = -0.000124649
smoothSolver:  Solving for omega, Initial residual = 0.000149849, Final residual = 1.3374e-05, No Iterations 3
smoothSolver:  Solving for k, Initial residual = 0.00225194, Final residual = 0.000124713, No Iterations 4
ExecutionTime = 8.88 s  ClockTime = 9 s

forceCoeffs forceCoeffs1 write:
    Cm    = 0.158167
    Cd    = 0.402572
    Cl    = 0.0711942
    Cl(f) = 0.193764
    Cl(r) = -0.12257

Time = 76

smoothSolver:  Solving for Ux, Initial residual = 0.00118471, Final residual = 9.75739e-05, No Iterations 10
smoothSolver:  Solving for Uy, Initial residual = 0.0248079, Final residual = 0.00235481, No Iterations 9
smoothSolver:  Solving for Uz, Initial residual = 0.0240995, Final residual = 0.00232537, No Iterations 9
GAMG:  Solving for p, Initial residual = 0.0107219, Final residual = 8.78778e-05, No Iterations 4
time step continuity errors : sum local = 0.000134333, global = -4.17712e-06, cumulative = -0.000128826
smoothSolver:  Solving for omega, Initial residual = 0.000149295, Final residual = 1.3282e-05, No Iterations 3
smoothSolver:  Solving for k, Initial residual = 0.002247, Final residual = 0.000124016, No Iterations 4
ExecutionTime = 8.99 s  ClockTime = 9 s

forceCoeffs forceCoeffs1 write:
    Cm    = 0.157767
    Cd    = 0.402997
    Cl    = 0.071635
    Cl(f) = 0.193584
    Cl(r) = -0.121949

Time = 77

smoothSolver:  Solving for Ux, Initial residual = 0.00116081, Final residual = 9.49752e-05, No Iterations 10
smoothSolver:  Solving for Uy, Initial residual = 0.0244328, Final residual = 0.0023073, No Iterations 9
smoothSolver:  Solving for Uz, Initial residual = 0.0235689, Final residual = 0.00227309, No Iterations 9
GAMG:  Solving for p, Initial residual = 0.0106609, Final residual = 8.95896e-05, No Iterations 4
time step continuity errors : sum local = 0.000136726, global = -4.07774e-06, cumulative = -0.000132904
smoothSolver:  Solving for omega, Initial residual = 0.000148873, Final residual = 1.32092e-05, No Iterations 3
smoothSolver:  Solving for k, Initial residual = 0.00224239, Final residual = 0.000123267, No Iterations 4
ExecutionTime = 9.11 s  ClockTime = 9 s

forceCoeffs forceCoeffs1 write:
    Cm    = 0.157227
    Cd    = 0.403558
    Cl    = 0.0724553
    Cl(f) = 0.193455
    Cl(r) = -0.121

Time = 78

smoothSolver:  Solving for Ux, Initial residual = 0.00113577, Final residual = 9.23882e-05, No Iterations 10
smoothSolver:  Solving for Uy, Initial residual = 0.0240624, Final residual = 0.00225252, No Iterations 9
smoothSolver:  Solving for Uz, Initial residual = 0.0230375, Final residual = 0.00221996, No Iterations 9
GAMG:  Solving for p, Initial residual = 0.0106107, Final residual = 9.05109e-05, No Iterations 4
time step continuity errors : sum local = 0.000137815, global = -2.89828e-06, cumulative = -0.000135802
smoothSolver:  Solving for omega, Initial residual = 0.000147534, Final residual = 1.30873e-05, No Iterations 3
smoothSolver:  Solving for k, Initial residual = 0.00223021, Final residual = 0.000122492, No Iterations 4
ExecutionTime = 9.21 s  ClockTime = 9 s

forceCoeffs forceCoeffs1 write:
    Cm    = 0.156641
    Cd    = 0.404286
    Cl    = 0.0734859
    Cl(f) = 0.193384
    Cl(r) = -0.119898

Time = 79

smoothSolver:  Solving for Ux, Initial residual = 0.00111059, Final residual = 8.96651e-05, No Iterations 10
smoothSolver:  Solving for Uy, Initial residual = 0.0236902, Final residual = 0.00220662, No Iterations 9
smoothSolver:  Solving for Uz, Initial residual = 0.0225496, Final residual = 0.00217193, No Iterations 9
GAMG:  Solving for p, Initial residual = 0.0105159, Final residual = 9.01841e-05, No Iterations 4
time step continuity errors : sum local = 0.000136929, global = -1.01145e-06, cumulative = -0.000136813
smoothSolver:  Solving for omega, Initial residual = 0.000145048, Final residual = 1.2898e-05, No Iterations 3
smoothSolver:  Solving for k, Initial residual = 0.00220823, Final residual = 0.000121151, No Iterations 4
ExecutionTime = 9.33 s  ClockTime = 9 s

forceCoeffs forceCoeffs1 write:
    Cm    = 0.156245
    Cd    = 0.405123
    Cl    = 0.074654
    Cl(f) = 0.193572
    Cl(r) = -0.118918

Time = 80

smoothSolver:  Solving for Ux, Initial residual = 0.00108828, Final residual = 8.73918e-05, No Iterations 10
smoothSolver:  Solving for Uy, Initial residual = 0.0233425, Final residual = 0.00217475, No Iterations 9
smoothSolver:  Solving for Uz, Initial residual = 0.0221322, Final residual = 0.0021298, No Iterations 9
GAMG:  Solving for p, Initial residual = 0.0103807, Final residual = 8.93544e-05, No Iterations 4
time step continuity errors : sum local = 0.000135255, global = 6.22743e-07, cumulative = -0.000136191
smoothSolver:  Solving for omega, Initial residual = 0.00014268, Final residual = 1.26842e-05, No Iterations 3
smoothSolver:  Solving for k, Initial residual = 0.00217771, Final residual = 0.000119519, No Iterations 4
ExecutionTime = 9.45 s  ClockTime = 9 s

forceCoeffs forceCoeffs1 write:
    Cm    = 0.156166
    Cd    = 0.406112
    Cl    = 0.0755808
    Cl(f) = 0.193957
    Cl(r) = -0.118376

Time = 81

smoothSolver:  Solving for Ux, Initial residual = 0.00106704, Final residual = 8.57809e-05, No Iterations 10
smoothSolver:  Solving for Uy, Initial residual = 0.023004, Final residual = 0.00214823, No Iterations 9
smoothSolver:  Solving for Uz, Initial residual = 0.0217528, Final residual = 0.00208562, No Iterations 9
GAMG:  Solving for p, Initial residual = 0.0102078, Final residual = 8.83826e-05, No Iterations 4
time step continuity errors : sum local = 0.000133395, global = 1.79197e-06, cumulative = -0.000134399
smoothSolver:  Solving for omega, Initial residual = 0.000140126, Final residual = 1.2469e-05, No Iterations 3
smoothSolver:  Solving for k, Initial residual = 0.00213834, Final residual = 0.00011798, No Iterations 4
ExecutionTime = 9.56 s  ClockTime = 10 s

forceCoeffs forceCoeffs1 write:
    Cm    = 0.156421
    Cd    = 0.407047
    Cl    = 0.0761708
    Cl(f) = 0.194506
    Cl(r) = -0.118335

Time = 82

smoothSolver:  Solving for Ux, Initial residual = 0.00104462, Final residual = 8.45599e-05, No Iterations 10
smoothSolver:  Solving for Uy, Initial residual = 0.0226456, Final residual = 0.00211992, No Iterations 9
smoothSolver:  Solving for Uz, Initial residual = 0.0213663, Final residual = 0.00203382, No Iterations 9
GAMG:  Solving for p, Initial residual = 0.0100378, Final residual = 8.66999e-05, No Iterations 4
time step continuity errors : sum local = 0.000130522, global = 2.25223e-06, cumulative = -0.000132146
smoothSolver:  Solving for omega, Initial residual = 0.000138114, Final residual = 1.23518e-05, No Iterations 3
smoothSolver:  Solving for k, Initial residual = 0.00209788, Final residual = 0.000116713, No Iterations 4
ExecutionTime = 9.67 s  ClockTime = 10 s

forceCoeffs forceCoeffs1 write:
    Cm    = 0.156865
    Cd    = 0.407711
    Cl    = 0.076141
    Cl(f) = 0.194935
    Cl(r) = -0.118794

Time = 83

smoothSolver:  Solving for Ux, Initial residual = 0.00102533, Final residual = 8.33749e-05, No Iterations 10
smoothSolver:  Solving for Uy, Initial residual = 0.0222516, Final residual = 0.00208977, No Iterations 9
smoothSolver:  Solving for Uz, Initial residual = 0.0209294, Final residual = 0.00197643, No Iterations 9
GAMG:  Solving for p, Initial residual = 0.00986785, Final residual = 8.39235e-05, No Iterations 4
time step continuity errors : sum local = 0.000126109, global = 2.1866e-06, cumulative = -0.00012996
smoothSolver:  Solving for omega, Initial residual = 0.000136933, Final residual = 1.22378e-05, No Iterations 3
smoothSolver:  Solving for k, Initial residual = 0.00206136, Final residual = 0.000114906, No Iterations 4
ExecutionTime = 9.79 s  ClockTime = 10 s

forceCoeffs forceCoeffs1 write:
    Cm    = 0.15742
    Cd    = 0.407954
    Cl    = 0.075575
    Cl(f) = 0.195207
    Cl(r) = -0.119632

Time = 84

smoothSolver:  Solving for Ux, Initial residual = 0.00100857, Final residual = 8.20929e-05, No Iterations 10
smoothSolver:  Solving for Uy, Initial residual = 0.0219561, Final residual = 0.00206417, No Iterations 9
smoothSolver:  Solving for Uz, Initial residual = 0.0204873, Final residual = 0.00191754, No Iterations 9
GAMG:  Solving for p, Initial residual = 0.00969578, Final residual = 8.16748e-05, No Iterations 4
time step continuity errors : sum local = 0.000122613, global = 1.8793e-06, cumulative = -0.000128081
smoothSolver:  Solving for omega, Initial residual = 0.000135634, Final residual = 1.20967e-05, No Iterations 3
smoothSolver:  Solving for k, Initial residual = 0.00202952, Final residual = 0.000112505, No Iterations 4
ExecutionTime = 9.89 s  ClockTime = 10 s

forceCoeffs forceCoeffs1 write:
    Cm    = 0.157963
    Cd    = 0.407931
    Cl    = 0.0745303
    Cl(f) = 0.195228
    Cl(r) = -0.120698

Time = 85

smoothSolver:  Solving for Ux, Initial residual = 0.000994057, Final residual = 8.1106e-05, No Iterations 10
smoothSolver:  Solving for Uy, Initial residual = 0.0217696, Final residual = 0.00204739, No Iterations 9
smoothSolver:  Solving for Uz, Initial residual = 0.0200438, Final residual = 0.00187621, No Iterations 9
GAMG:  Solving for p, Initial residual = 0.00956724, Final residual = 8.16325e-05, No Iterations 4
time step continuity errors : sum local = 0.000122511, global = 1.44222e-06, cumulative = -0.000126638
smoothSolver:  Solving for omega, Initial residual = 0.000134497, Final residual = 1.19228e-05, No Iterations 3
smoothSolver:  Solving for k, Initial residual = 0.00199342, Final residual = 0.000109701, No Iterations 4
ExecutionTime = 9.99 s  ClockTime = 10 s

forceCoeffs forceCoeffs1 write:
    Cm    = 0.158482
    Cd    = 0.40785
    Cl    = 0.0732567
    Cl(f) = 0.19511
    Cl(r) = -0.121853

Time = 86

smoothSolver:  Solving for Ux, Initial residual = 0.000980555, Final residual = 8.03105e-05, No Iterations 10
smoothSolver:  Solving for Uy, Initial residual = 0.0215345, Final residual = 0.00202739, No Iterations 9
smoothSolver:  Solving for Uz, Initial residual = 0.0196083, Final residual = 0.00184748, No Iterations 9
GAMG:  Solving for p, Initial residual = 0.0094509, Final residual = 8.09631e-05, No Iterations 4
time step continuity errors : sum local = 0.000121495, global = 7.55706e-07, cumulative = -0.000125883
smoothSolver:  Solving for omega, Initial residual = 0.000132952, Final residual = 1.17005e-05, No Iterations 3
smoothSolver:  Solving for k, Initial residual = 0.00195699, Final residual = 0.000106826, No Iterations 4
ExecutionTime = 10.1 s  ClockTime = 10 s

forceCoeffs forceCoeffs1 write:
    Cm    = 0.158951
    Cd    = 0.407929
    Cl    = 0.0718877
    Cl(f) = 0.194895
    Cl(r) = -0.123007

Time = 87

smoothSolver:  Solving for Ux, Initial residual = 0.000968704, Final residual = 7.94718e-05, No Iterations 10
smoothSolver:  Solving for Uy, Initial residual = 0.021252, Final residual = 0.00200814, No Iterations 9
smoothSolver:  Solving for Uz, Initial residual = 0.0191617, Final residual = 0.00181741, No Iterations 9
GAMG:  Solving for p, Initial residual = 0.00934337, Final residual = 7.92499e-05, No Iterations 4
time step continuity errors : sum local = 0.000118877, global = 3.46625e-07, cumulative = -0.000125536
smoothSolver:  Solving for omega, Initial residual = 0.000131627, Final residual = 1.15226e-05, No Iterations 3
smoothSolver:  Solving for k, Initial residual = 0.00191957, Final residual = 0.000104608, No Iterations 4
ExecutionTime = 10.21 s  ClockTime = 10 s

forceCoeffs forceCoeffs1 write:
    Cm    = 0.15933
    Cd    = 0.408076
    Cl    = 0.0706683
    Cl(f) = 0.194664
    Cl(r) = -0.123996

Time = 88

smoothSolver:  Solving for Ux, Initial residual = 0.00095343, Final residual = 7.83308e-05, No Iterations 10
smoothSolver:  Solving for Uy, Initial residual = 0.0209418, Final residual = 0.00198865, No Iterations 9
smoothSolver:  Solving for Uz, Initial residual = 0.0187342, Final residual = 0.00179277, No Iterations 9
GAMG:  Solving for p, Initial residual = 0.00923359, Final residual = 7.76347e-05, No Iterations 4
time step continuity errors : sum local = 0.000116312, global = 1.7371e-07, cumulative = -0.000125362
smoothSolver:  Solving for omega, Initial residual = 0.000130832, Final residual = 1.13992e-05, No Iterations 3
smoothSolver:  Solving for k, Initial residual = 0.00189098, Final residual = 0.000102981, No Iterations 4
ExecutionTime = 10.3 s  ClockTime = 10 s

forceCoeffs forceCoeffs1 write:
    Cm    = 0.159482
    Cd    = 0.408163
    Cl    = 0.0697109
    Cl(f) = 0.194338
    Cl(r) = -0.124627

Time = 89

smoothSolver:  Solving for Ux, Initial residual = 0.000937647, Final residual = 7.69075e-05, No Iterations 10
smoothSolver:  Solving for Uy, Initial residual = 0.0206686, Final residual = 0.00196993, No Iterations 9
smoothSolver:  Solving for Uz, Initial residual = 0.0184413, Final residual = 0.00177231, No Iterations 9
GAMG:  Solving for p, Initial residual = 0.00909037, Final residual = 7.65644e-05, No Iterations 4
time step continuity errors : sum local = 0.0001145, global = 2.38929e-07, cumulative = -0.000125123
smoothSolver:  Solving for omega, Initial residual = 0.000129775, Final residual = 1.12939e-05, No Iterations 3
bounding omega, min: -27.0649 max: 155308 average: 936.836
smoothSolver:  Solving for k, Initial residual = 0.00186252, Final residual = 0.000101438, No Iterations 4
ExecutionTime = 10.4 s  ClockTime = 10 s

forceCoeffs forceCoeffs1 write:
    Cm    = 0.159412
    Cd    = 0.408146
    Cl    = 0.0693156
    Cl(f) = 0.194069
    Cl(r) = -0.124754

Time = 90

smoothSolver:  Solving for Ux, Initial residual = 0.000921349, Final residual = 7.53839e-05, No Iterations 10
smoothSolver:  Solving for Uy, Initial residual = 0.0205254, Final residual = 0.00194844, No Iterations 9
smoothSolver:  Solving for Uz, Initial residual = 0.0183124, Final residual = 0.00175159, No Iterations 9
GAMG:  Solving for p, Initial residual = 0.00896494, Final residual = 7.64285e-05, No Iterations 4
time step continuity errors : sum local = 0.000114084, global = 3.58968e-07, cumulative = -0.000124764
smoothSolver:  Solving for omega, Initial residual = 0.000128737, Final residual = 1.11911e-05, No Iterations 3
smoothSolver:  Solving for k, Initial residual = 0.00183829, Final residual = 9.99998e-05, No Iterations 4
ExecutionTime = 10.5 s  ClockTime = 10 s

forceCoeffs forceCoeffs1 write:
    Cm    = 0.159063
    Cd    = 0.407963
    Cl    = 0.0693896
    Cl(f) = 0.193758
    Cl(r) = -0.124369

Time = 91

smoothSolver:  Solving for Ux, Initial residual = 0.000905585, Final residual = 7.38571e-05, No Iterations 10
smoothSolver:  Solving for Uy, Initial residual = 0.0204587, Final residual = 0.00192133, No Iterations 9
smoothSolver:  Solving for Uz, Initial residual = 0.0182602, Final residual = 0.00172695, No Iterations 9
GAMG:  Solving for p, Initial residual = 0.00887588, Final residual = 7.64853e-05, No Iterations 4
time step continuity errors : sum local = 0.000114008, global = 7.4371e-07, cumulative = -0.000124021
smoothSolver:  Solving for omega, Initial residual = 0.000127826, Final residual = 1.10821e-05, No Iterations 3
smoothSolver:  Solving for k, Initial residual = 0.00181268, Final residual = 9.86377e-05, No Iterations 4
ExecutionTime = 10.59 s  ClockTime = 11 s

forceCoeffs forceCoeffs1 write:
    Cm    = 0.158561
    Cd    = 0.407613
    Cl    = 0.0699085
    Cl(f) = 0.193515
    Cl(r) = -0.123607

Time = 92

smoothSolver:  Solving for Ux, Initial residual = 0.000891199, Final residual = 7.23132e-05, No Iterations 10
smoothSolver:  Solving for Uy, Initial residual = 0.0202645, Final residual = 0.00188138, No Iterations 9
smoothSolver:  Solving for Uz, Initial residual = 0.0181994, Final residual = 0.0016998, No Iterations 9
GAMG:  Solving for p, Initial residual = 0.00880157, Final residual = 7.52123e-05, No Iterations 4
time step continuity errors : sum local = 0.000112045, global = 1.51826e-06, cumulative = -0.000122502
smoothSolver:  Solving for omega, Initial residual = 0.000127323, Final residual = 1.09758e-05, No Iterations 3
smoothSolver:  Solving for k, Initial residual = 0.0017861, Final residual = 9.73496e-05, No Iterations 4
ExecutionTime = 10.71 s  ClockTime = 11 s

forceCoeffs forceCoeffs1 write:
    Cm    = 0.157987
    Cd    = 0.40721
    Cl    = 0.070729
    Cl(f) = 0.193352
    Cl(r) = -0.122623

Time = 93

smoothSolver:  Solving for Ux, Initial residual = 0.000878298, Final residual = 7.08987e-05, No Iterations 10
smoothSolver:  Solving for Uy, Initial residual = 0.019854, Final residual = 0.00182932, No Iterations 9
smoothSolver:  Solving for Uz, Initial residual = 0.0180562, Final residual = 0.00168032, No Iterations 9
GAMG:  Solving for p, Initial residual = 0.00877001, Final residual = 7.25121e-05, No Iterations 4
time step continuity errors : sum local = 0.00010803, global = 2.06985e-06, cumulative = -0.000120433
smoothSolver:  Solving for omega, Initial residual = 0.000126664, Final residual = 1.08697e-05, No Iterations 3
smoothSolver:  Solving for k, Initial residual = 0.00175797, Final residual = 9.61205e-05, No Iterations 4
ExecutionTime = 10.82 s  ClockTime = 11 s

forceCoeffs forceCoeffs1 write:
    Cm    = 0.157572
    Cd    = 0.406911
    Cl    = 0.0716693
    Cl(f) = 0.193406
    Cl(r) = -0.121737

Time = 94

smoothSolver:  Solving for Ux, Initial residual = 0.000864529, Final residual = 6.97527e-05, No Iterations 10
smoothSolver:  Solving for Uy, Initial residual = 0.019316, Final residual = 0.00178091, No Iterations 9
smoothSolver:  Solving for Uz, Initial residual = 0.0178292, Final residual = 0.00166663, No Iterations 9
GAMG:  Solving for p, Initial residual = 0.00874101, Final residual = 6.87821e-05, No Iterations 4
time step continuity errors : sum local = 0.000102545, global = 2.2452e-06, cumulative = -0.000118187
smoothSolver:  Solving for omega, Initial residual = 0.000125765, Final residual = 1.07557e-05, No Iterations 3
smoothSolver:  Solving for k, Initial residual = 0.00172909, Final residual = 9.47832e-05, No Iterations 4
ExecutionTime = 10.92 s  ClockTime = 11 s

forceCoeffs forceCoeffs1 write:
    Cm    = 0.157436
    Cd    = 0.406899
    Cl    = 0.0724159
    Cl(f) = 0.193644
    Cl(r) = -0.121228

Time = 95

smoothSolver:  Solving for Ux, Initial residual = 0.000851817, Final residual = 6.88827e-05, No Iterations 10
smoothSolver:  Solving for Uy, Initial residual = 0.0187165, Final residual = 0.00173696, No Iterations 9
smoothSolver:  Solving for Uz, Initial residual = 0.0175169, Final residual = 0.0016587, No Iterations 9
GAMG:  Solving for p, Initial residual = 0.00867223, Final residual = 6.73597e-05, No Iterations 4
time step continuity errors : sum local = 0.00010055, global = 2.111e-06, cumulative = -0.000116076
smoothSolver:  Solving for omega, Initial residual = 0.000124661, Final residual = 1.06391e-05, No Iterations 3
smoothSolver:  Solving for k, Initial residual = 0.00170206, Final residual = 9.32791e-05, No Iterations 4
ExecutionTime = 11.03 s  ClockTime = 11 s

forceCoeffs forceCoeffs1 write:
    Cm    = 0.157634
    Cd    = 0.407221
    Cl    = 0.0729784
    Cl(f) = 0.194123
    Cl(r) = -0.121145

Time = 96

smoothSolver:  Solving for Ux, Initial residual = 0.000841892, Final residual = 6.83982e-05, No Iterations 10
smoothSolver:  Solving for Uy, Initial residual = 0.0181697, Final residual = 0.00169881, No Iterations 9
smoothSolver:  Solving for Uz, Initial residual = 0.0172193, Final residual = 0.00165141, No Iterations 9
GAMG:  Solving for p, Initial residual = 0.00857499, Final residual = 6.90052e-05, No Iterations 4
time step continuity errors : sum local = 0.000103167, global = 1.93393e-06, cumulative = -0.000114142
smoothSolver:  Solving for omega, Initial residual = 0.000123687, Final residual = 1.05536e-05, No Iterations 3
smoothSolver:  Solving for k, Initial residual = 0.00168063, Final residual = 9.16348e-05, No Iterations 4
ExecutionTime = 11.13 s  ClockTime = 11 s

forceCoeffs forceCoeffs1 write:
    Cm    = 0.15801
    Cd    = 0.407781
    Cl    = 0.0733145
    Cl(f) = 0.194667
    Cl(r) = -0.121353

Time = 97

smoothSolver:  Solving for Ux, Initial residual = 0.000835446, Final residual = 6.83432e-05, No Iterations 10
smoothSolver:  Solving for Uy, Initial residual = 0.0178341, Final residual = 0.00166862, No Iterations 9
smoothSolver:  Solving for Uz, Initial residual = 0.0170891, Final residual = 0.00164452, No Iterations 9
GAMG:  Solving for p, Initial residual = 0.00846329, Final residual = 7.12941e-05, No Iterations 4
time step continuity errors : sum local = 0.000106759, global = 1.67162e-06, cumulative = -0.000112471
smoothSolver:  Solving for omega, Initial residual = 0.000123381, Final residual = 1.04859e-05, No Iterations 3
smoothSolver:  Solving for k, Initial residual = 0.00166106, Final residual = 9.01289e-05, No Iterations 4
ExecutionTime = 11.22 s  ClockTime = 11 s

forceCoeffs forceCoeffs1 write:
    Cm    = 0.158429
    Cd    = 0.408337
    Cl    = 0.0735789
    Cl(f) = 0.195219
    Cl(r) = -0.12164

Time = 98

smoothSolver:  Solving for Ux, Initial residual = 0.000832675, Final residual = 6.85175e-05, No Iterations 10
smoothSolver:  Solving for Uy, Initial residual = 0.0177149, Final residual = 0.00165149, No Iterations 9
smoothSolver:  Solving for Uz, Initial residual = 0.0170691, Final residual = 0.00164365, No Iterations 9
GAMG:  Solving for p, Initial residual = 0.00838164, Final residual = 7.25452e-05, No Iterations 4
time step continuity errors : sum local = 0.00010881, global = 1.48945e-06, cumulative = -0.000110981
smoothSolver:  Solving for omega, Initial residual = 0.000123146, Final residual = 1.04102e-05, No Iterations 3
smoothSolver:  Solving for k, Initial residual = 0.00164442, Final residual = 8.86593e-05, No Iterations 4
ExecutionTime = 11.34 s  ClockTime = 11 s

forceCoeffs forceCoeffs1 write:
    Cm    = 0.158733
    Cd    = 0.408764
    Cl    = 0.0736553
    Cl(f) = 0.19556
    Cl(r) = -0.121905

Time = 99

smoothSolver:  Solving for Ux, Initial residual = 0.000833349, Final residual = 6.87477e-05, No Iterations 10
smoothSolver:  Solving for Uy, Initial residual = 0.0176776, Final residual = 0.0016428, No Iterations 9
smoothSolver:  Solving for Uz, Initial residual = 0.0170913, Final residual = 0.00164692, No Iterations 9
GAMG:  Solving for p, Initial residual = 0.00835231, Final residual = 7.16431e-05, No Iterations 4
time step continuity errors : sum local = 0.000107632, global = 1.36903e-06, cumulative = -0.000109612
smoothSolver:  Solving for omega, Initial residual = 0.000122708, Final residual = 1.03347e-05, No Iterations 3
bounding omega, min: -43.3584 max: 155308 average: 937.348
smoothSolver:  Solving for k, Initial residual = 0.00163131, Final residual = 8.73052e-05, No Iterations 4
ExecutionTime = 11.45 s  ClockTime = 11 s

forceCoeffs forceCoeffs1 write:
    Cm    = 0.158969
    Cd    = 0.409018
    Cl    = 0.0736216
    Cl(f) = 0.19578
    Cl(r) = -0.122158

Time = 100

smoothSolver:  Solving for Ux, Initial residual = 0.000834535, Final residual = 6.89887e-05, No Iterations 10
smoothSolver:  Solving for Uy, Initial residual = 0.0176143, Final residual = 0.00163148, No Iterations 9
smoothSolver:  Solving for Uz, Initial residual = 0.0170865, Final residual = 0.00165165, No Iterations 9
GAMG:  Solving for p, Initial residual = 0.0083353, Final residual = 6.92875e-05, No Iterations 4
time step continuity errors : sum local = 0.000104264, global = 1.26482e-06, cumulative = -0.000108348
smoothSolver:  Solving for omega, Initial residual = 0.000122437, Final residual = 1.03251e-05, No Iterations 3
smoothSolver:  Solving for k, Initial residual = 0.00161659, Final residual = 8.64052e-05, No Iterations 4
ExecutionTime = 11.57 s  ClockTime = 12 s

forceCoeffs forceCoeffs1 write:
    Cm    = 0.159147
    Cd    = 0.409096
    Cl    = 0.0733896
    Cl(f) = 0.195842
    Cl(r) = -0.122453

End

Finalising parallel run
