/*---------------------------------------------------------------------------*\
  =========                 |
  \\      /  F ield         | OpenFOAM: The Open Source CFD Toolbox
   \\    /   O peration     | Website:  https://openfoam.org
    \\  /    A nd           | Version:  7
     \\/     M anipulation  |
\*---------------------------------------------------------------------------*/
Build  : 7
Exec   : decomposePar
Date   : Oct 14 2020
Time   : 15:50:37
Host   : "cpu-p-296"
PID    : 162410
I/O    : uncollated
Case   : /rds/user/hpcbras1/hpc-work/csd3/cclake-ib-gcc9-ompi3-ucx/openfoam/Openfoam_Mbike_csd3_cclake_ib_gcc9_ompi3_ucx_896_56
nProcs : 1
sigFpe : Enabling floating point exception trapping (FOAM_SIGFPE).
fileModificationChecking : Monitoring run-time modified files using timeStampMaster (fileModificationSkew 10)
allowSystemOperations : Allowing user-supplied system call operations

// * * * * * * * * * * * * * * * * * * * * * * * * * * * * * * * * * * * * * //
Create time



Decomposing mesh region0

Create mesh

Calculating distribution of cells
 Foam::decompositionMethod::New 
{
    numberOfSubdomains 896;
    method          scotch;
    simpleCoeffs
    {
        n               ( 4 1 1 );
        delta           0.001;
    }
    hierarchicalCoeffs
    {
        n               ( 3 2 1 );
        delta           0.001;
        order           xyz;
    }
    manualCoeffs
    {
        dataFile        "cellDecomposition";
    }
}

Selecting decompositionMethod scotch

Finished decomposition in 0.07 s

Calculating original mesh data

Distributing cells to processors

Distributing faces to processors

Distributing points to processors

Constructing processor meshes

Processor 0
    Number of cells = 11
    Number of faces shared with processor 129 = 2
    Number of faces shared with processor 1 = 5
    Number of faces shared with processor 2 = 4
    Number of faces shared with processor 5 = 1
    Number of faces shared with processor 6 = 4
    Number of faces shared with processor 138 = 3
    Number of faces shared with processor 10 = 8
    Number of faces shared with processor 243 = 2
    Number of faces shared with processor 247 = 2
    Number of faces shared with processor 127 = 1
    Number of processor patches = 10
    Number of processor faces = 32
    Number of boundary faces = 0

Processor 1
    Number of cells = 11
    Number of faces shared with processor 0 = 5
    Number of faces shared with processor 2 = 5
    Number of faces shared with processor 4 = 4
    Number of faces shared with processor 5 = 1
    Number of faces shared with processor 135 = 1
    Number of faces shared with processor 7 = 5
    Number of faces shared with processor 10 = 3
    Number of faces shared with processor 13 = 2
    Number of faces shared with processor 15 = 2
    Number of faces shared with processor 23 = 2
    Number of faces shared with processor 50 = 1
    Number of faces shared with processor 241 = 1
    Number of faces shared with processor 245 = 3
    Number of faces shared with processor 246 = 1
    Number of processor patches = 14
    Number of processor faces = 36
    Number of boundary faces = 0

Processor 2
    Number of cells = 12
    Number of faces shared with processor 0 = 4
    Number of faces shared with processor 1 = 5
    Number of faces shared with processor 3 = 6
    Number of faces shared with processor 5 = 3
    Number of faces shared with processor 7 = 4
    Number of faces shared with processor 10 = 2
    Number of faces shared with processor 14 = 1
    Number of faces shared with processor 27 = 4
    Number of faces shared with processor 45 = 1
    Number of faces shared with processor 50 = 1
    Number of faces shared with processor 51 = 5
    Number of processor patches = 11
    Number of processor faces = 36
    Number of boundary faces = 0

Processor 3
    Number of cells = 11
    Number of faces shared with processor 2 = 6
    Number of faces shared with processor 4 = 6
    Number of faces shared with processor 5 = 7
    Number of faces shared with processor 25 = 4
    Number of faces shared with processor 27 = 1
    Number of faces shared with processor 49 = 5
    Number of processor patches = 6
    Number of processor faces = 29
    Number of boundary faces = 5

Processor 4
    Number of cells = 12
    Number of faces shared with processor 1 = 4
    Number of faces shared with processor 3 = 6
    Number of faces shared with processor 6 = 6
    Number of faces shared with processor 23 = 6
    Number of faces shared with processor 241 = 2
    Number of faces shared with processor 242 = 4
    Number of processor patches = 6
    Number of processor faces = 28
    Number of boundary faces = 4

Processor 5
    Number of cells = 11
    Number of faces shared with processor 0 = 1
    Number of faces shared with processor 1 = 1
    Number of faces shared with processor 2 = 3
    Number of faces shared with processor 3 = 7
    Number of faces shared with processor 134 = 1
    Number of faces shared with processor 6 = 6
    Number of faces shared with processor 135 = 2
    Number of faces shared with processor 138 = 1
    Number of faces shared with processor 139 = 2
    Number of faces shared with processor 49 = 2
    Number of faces shared with processor 50 = 3
    Number of processor patches = 11
    Number of processor faces = 29
    Number of boundary faces = 3

Processor 6
    Number of cells = 12
    Number of faces shared with processor 0 = 4
    Number of faces shared with processor 4 = 6
    Number of faces shared with processor 5 = 6
    Number of faces shared with processor 138 = 2
    Number of faces shared with processor 139 = 4
    Number of faces shared with processor 243 = 2
    Number of faces shared with processor 244 = 4
    Number of processor patches = 7
    Number of processor faces = 28
    Number of boundary faces = 4

Processor 7
    Number of cells = 11
    Number of faces shared with processor 1 = 5
    Number of faces shared with processor 2 = 4
    Number of faces shared with processor 8 = 5
    Number of faces shared with processor 9 = 5
    Number of faces shared with processor 10 = 2
    Number of faces shared with processor 13 = 2
    Number of faces shared with processor 14 = 1
    Number of faces shared with processor 15 = 3
    Number of faces shared with processor 20 = 3
    Number of faces shared with processor 27 = 2
    Number of faces shared with processor 31 = 5
    Number of faces shared with processor 37 = 1
    Number of faces shared with processor 51 = 1
    Number of faces shared with processor 245 = 1
    Number of processor patches = 14
    Number of processor faces = 40
    Number of boundary faces = 0

Processor 8
    Number of cells = 11
    Number of faces shared with processor 7 = 5
    Number of faces shared with processor 9 = 8
    Number of faces shared with processor 15 = 1
    Number of faces shared with processor 16 = 1
    Number of faces shared with processor 18 = 6
    Number of faces shared with processor 20 = 3
    Number of faces shared with processor 33 = 5
    Number of faces shared with processor 41 = 2
    Number of faces shared with processor 57 = 3
    Number of faces shared with processor 108 = 1
    Number of faces shared with processor 111 = 1
    Number of processor patches = 11
    Number of processor faces = 36
    Number of boundary faces = 0

Processor 9
    Number of cells = 12
    Number of faces shared with processor 7 = 5
    Number of faces shared with processor 8 = 8
    Number of faces shared with processor 11 = 6
    Number of faces shared with processor 13 = 4
    Number of faces shared with processor 31 = 1
    Number of faces shared with processor 33 = 2
    Number of faces shared with processor 57 = 2
    Number of faces shared with processor 108 = 1
    Number of faces shared with processor 109 = 1
    Number of faces shared with processor 111 = 2
    Number of processor patches = 10
    Number of processor faces = 32
    Number of boundary faces = 0

Processor 10
    Number of cells = 11
    Number of faces shared with processor 0 = 8
    Number of faces shared with processor 129 = 1
    Number of faces shared with processor 1 = 3
    Number of faces shared with processor 2 = 2
    Number of faces shared with processor 131 = 2
    Number of faces shared with processor 7 = 2
    Number of faces shared with processor 11 = 5
    Number of faces shared with processor 12 = 1
    Number of faces shared with processor 13 = 5
    Number of faces shared with processor 32 = 2
    Number of faces shared with processor 51 = 2
    Number of faces shared with processor 246 = 2
    Number of faces shared with processor 127 = 3
    Number of processor patches = 13
    Number of processor faces = 38
    Number of boundary faces = 0

Processor 11
    Number of cells = 12
    Number of faces shared with processor 130 = 6
    Number of faces shared with processor 9 = 6
    Number of faces shared with processor 10 = 5
    Number of faces shared with processor 12 = 3
    Number of faces shared with processor 13 = 2
    Number of faces shared with processor 32 = 2
    Number of faces shared with processor 34 = 4
    Number of faces shared with processor 57 = 1
    Number of faces shared with processor 210 = 1
    Number of faces shared with processor 211 = 1
    Number of faces shared with processor 109 = 1
    Number of processor patches = 11
    Number of processor faces = 32
    Number of boundary faces = 0

Processor 12
    Number of cells = 11
    Number of faces shared with processor 10 = 1
    Number of faces shared with processor 11 = 3
    Number of faces shared with processor 13 = 6
    Number of faces shared with processor 309 = 4
    Number of faces shared with processor 211 = 1
    Number of faces shared with processor 212 = 2
    Number of faces shared with processor 213 = 3
    Number of faces shared with processor 106 = 1
    Number of faces shared with processor 109 = 1
    Number of faces shared with processor 110 = 2
    Number of faces shared with processor 111 = 3
    Number of faces shared with processor 246 = 2
    Number of faces shared with processor 126 = 3
    Number of processor patches = 13
    Number of processor faces = 32
    Number of boundary faces = 0

Processor 13
    Number of cells = 12
    Number of faces shared with processor 1 = 2
    Number of faces shared with processor 7 = 2
    Number of faces shared with processor 9 = 4
    Number of faces shared with processor 10 = 5
    Number of faces shared with processor 11 = 2
    Number of faces shared with processor 12 = 6
    Number of faces shared with processor 15 = 2
    Number of faces shared with processor 16 = 2
    Number of faces shared with processor 106 = 2
    Number of faces shared with processor 111 = 4
    Number of faces shared with processor 245 = 1
    Number of faces shared with processor 246 = 3
    Number of faces shared with processor 127 = 1
    Number of processor patches = 13
    Number of processor faces = 36
    Number of boundary faces = 0

Processor 14
    Number of cells = 11
    Number of faces shared with processor 2 = 1
    Number of faces shared with processor 7 = 1
    Number of faces shared with processor 15 = 4
    Number of faces shared with processor 16 = 4
    Number of faces shared with processor 19 = 2
    Number of faces shared with processor 20 = 6
    Number of faces shared with processor 21 = 2
    Number of faces shared with processor 22 = 3
    Number of faces shared with processor 26 = 2
    Number of faces shared with processor 27 = 2
    Number of faces shared with processor 224 = 2
    Number of faces shared with processor 226 = 2
    Number of processor patches = 12
    Number of processor faces = 31
    Number of boundary faces = 5

Processor 15
    Number of cells = 11
    Number of faces shared with processor 1 = 2
    Number of faces shared with processor 7 = 3
    Number of faces shared with processor 8 = 1
    Number of faces shared with processor 13 = 2
    Number of faces shared with processor 14 = 4
    Number of faces shared with processor 16 = 6
    Number of faces shared with processor 20 = 2
    Number of faces shared with processor 22 = 4
    Number of faces shared with processor 23 = 2
    Number of faces shared with processor 225 = 3
    Number of faces shared with processor 226 = 2
    Number of faces shared with processor 232 = 1
    Number of processor patches = 12
    Number of processor faces = 32
    Number of boundary faces = 0

Processor 16
    Number of cells = 12
    Number of faces shared with processor 8 = 1
    Number of faces shared with processor 13 = 2
    Number of faces shared with processor 14 = 4
    Number of faces shared with processor 15 = 6
    Number of faces shared with processor 17 = 2
    Number of faces shared with processor 18 = 2
    Number of faces shared with processor 20 = 1
    Number of faces shared with processor 224 = 1
    Number of faces shared with processor 226 = 1
    Number of faces shared with processor 100 = 6
    Number of faces shared with processor 103 = 3
    Number of faces shared with processor 106 = 1
    Number of faces shared with processor 111 = 2
    Number of processor patches = 13
    Number of processor faces = 32
    Number of boundary faces = 4

Processor 17
    Number of cells = 11
    Number of faces shared with processor 16 = 2
    Number of faces shared with processor 18 = 8
    Number of faces shared with processor 19 = 4
    Number of faces shared with processor 20 = 5
    Number of faces shared with processor 35 = 1
    Number of faces shared with processor 39 = 3
    Number of faces shared with processor 83 = 2
    Number of faces shared with processor 99 = 1
    Number of faces shared with processor 100 = 1
    Number of processor patches = 9
    Number of processor faces = 27
    Number of boundary faces = 9

Processor 18
    Number of cells = 12
    Number of faces shared with processor 8 = 6
    Number of faces shared with processor 16 = 2
    Number of faces shared with processor 17 = 8
    Number of faces shared with processor 20 = 4
    Number of faces shared with processor 39 = 3
    Number of faces shared with processor 41 = 1
    Number of faces shared with processor 83 = 4
    Number of faces shared with processor 99 = 2
    Number of faces shared with processor 100 = 2
    Number of processor patches = 9
    Number of processor faces = 32
    Number of boundary faces = 0

Processor 19
    Number of cells = 11
    Number of faces shared with processor 14 = 2
    Number of faces shared with processor 17 = 4
    Number of faces shared with processor 20 = 7
    Number of faces shared with processor 26 = 8
    Number of faces shared with processor 27 = 3
    Number of faces shared with processor 35 = 2
    Number of faces shared with processor 37 = 2
    Number of faces shared with processor 43 = 1
    Number of faces shared with processor 46 = 1
    Number of processor patches = 9
    Number of processor faces = 30
    Number of boundary faces = 4

Processor 20
    Number of cells = 12
    Number of faces shared with processor 7 = 3
    Number of faces shared with processor 8 = 3
    Number of faces shared with processor 14 = 6
    Number of faces shared with processor 15 = 2
    Number of faces shared with processor 16 = 1
    Number of faces shared with processor 17 = 5
    Number of faces shared with processor 18 = 4
    Number of faces shared with processor 19 = 7
    Number of faces shared with processor 22 = 1
    Number of faces shared with processor 27 = 4
    Number of faces shared with processor 37 = 2
    Number of faces shared with processor 41 = 1
    Number of processor patches = 12
    Number of processor faces = 39
    Number of boundary faces = 1

Processor 21
    Number of cells = 11
    Number of faces shared with processor 14 = 2
    Number of faces shared with processor 22 = 8
    Number of faces shared with processor 23 = 2
    Number of faces shared with processor 24 = 5
    Number of faces shared with processor 26 = 2
    Number of faces shared with processor 231 = 5
    Number of processor patches = 6
    Number of processor faces = 24
    Number of boundary faces = 14

Processor 22
    Number of cells = 11
    Number of faces shared with processor 14 = 3
    Number of faces shared with processor 15 = 4
    Number of faces shared with processor 20 = 1
    Number of faces shared with processor 21 = 8
    Number of faces shared with processor 23 = 8
    Number of faces shared with processor 24 = 1
    Number of faces shared with processor 26 = 2
    Number of faces shared with processor 27 = 2
    Number of faces shared with processor 232 = 3
    Number of faces shared with processor 233 = 2
    Number of processor patches = 10
    Number of processor faces = 34
    Number of boundary faces = 0

Processor 23
    Number of cells = 12
    Number of faces shared with processor 1 = 2
    Number of faces shared with processor 4 = 6
    Number of faces shared with processor 15 = 2
    Number of faces shared with processor 21 = 2
    Number of faces shared with processor 22 = 8
    Number of faces shared with processor 25 = 4
    Number of faces shared with processor 27 = 2
    Number of faces shared with processor 232 = 2
    Number of faces shared with processor 233 = 4
    Number of processor patches = 9
    Number of processor faces = 32
    Number of boundary faces = 4

Processor 24
    Number of cells = 11
    Number of faces shared with processor 21 = 5
    Number of faces shared with processor 22 = 1
    Number of faces shared with processor 25 = 6
    Number of faces shared with processor 26 = 6
    Number of faces shared with processor 42 = 3
    Number of faces shared with processor 43 = 1
    Number of processor patches = 6
    Number of processor faces = 22
    Number of boundary faces = 10

Processor 25
    Number of cells = 12
    Number of faces shared with processor 3 = 4
    Number of faces shared with processor 23 = 4
    Number of faces shared with processor 24 = 6
    Number of faces shared with processor 26 = 1
    Number of faces shared with processor 27 = 5
    Number of faces shared with processor 42 = 2
    Number of faces shared with processor 45 = 2
    Number of faces shared with processor 49 = 2
    Number of processor patches = 8
    Number of processor faces = 26
    Number of boundary faces = 6

Processor 26
    Number of cells = 11
    Number of faces shared with processor 14 = 2
    Number of faces shared with processor 19 = 8
    Number of faces shared with processor 21 = 2
    Number of faces shared with processor 22 = 2
    Number of faces shared with processor 24 = 6
    Number of faces shared with processor 25 = 1
    Number of faces shared with processor 27 = 5
    Number of faces shared with processor 43 = 3
    Number of faces shared with processor 46 = 1
    Number of processor patches = 9
    Number of processor faces = 30
    Number of boundary faces = 6

Processor 27
    Number of cells = 12
    Number of faces shared with processor 2 = 4
    Number of faces shared with processor 3 = 1
    Number of faces shared with processor 7 = 2
    Number of faces shared with processor 14 = 2
    Number of faces shared with processor 19 = 3
    Number of faces shared with processor 20 = 4
    Number of faces shared with processor 22 = 2
    Number of faces shared with processor 23 = 2
    Number of faces shared with processor 25 = 5
    Number of faces shared with processor 26 = 5
    Number of faces shared with processor 37 = 1
    Number of faces shared with processor 45 = 1
    Number of faces shared with processor 46 = 2
    Number of faces shared with processor 51 = 2
    Number of processor patches = 14
    Number of processor faces = 36
    Number of boundary faces = 0

Processor 28
    Number of cells = 11
    Number of faces shared with processor 29 = 4
    Number of faces shared with processor 30 = 4
    Number of faces shared with processor 31 = 6
    Number of faces shared with processor 36 = 4
    Number of faces shared with processor 37 = 1
    Number of faces shared with processor 40 = 2
    Number of faces shared with processor 46 = 1
    Number of faces shared with processor 48 = 2
    Number of faces shared with processor 52 = 2
    Number of faces shared with processor 53 = 3
    Number of faces shared with processor 635 = 3
    Number of faces shared with processor 636 = 2
    Number of processor patches = 12
    Number of processor faces = 34
    Number of boundary faces = 0

Processor 29
    Number of cells = 11
    Number of faces shared with processor 28 = 4
    Number of faces shared with processor 30 = 6
    Number of faces shared with processor 33 = 4
    Number of faces shared with processor 34 = 2
    Number of faces shared with processor 40 = 5
    Number of faces shared with processor 41 = 1
    Number of faces shared with processor 59 = 4
    Number of faces shared with processor 61 = 1
    Number of faces shared with processor 597 = 2
    Number of faces shared with processor 634 = 1
    Number of faces shared with processor 636 = 2
    Number of processor patches = 11
    Number of processor faces = 32
    Number of boundary faces = 0

Processor 30
    Number of cells = 12
    Number of faces shared with processor 28 = 4
    Number of faces shared with processor 29 = 6
    Number of faces shared with processor 32 = 4
    Number of faces shared with processor 34 = 2
    Number of faces shared with processor 179 = 2
    Number of faces shared with processor 52 = 2
    Number of faces shared with processor 53 = 2
    Number of faces shared with processor 597 = 1
    Number of faces shared with processor 119 = 8
    Number of faces shared with processor 633 = 2
    Number of faces shared with processor 634 = 3
    Number of processor patches = 11
    Number of processor faces = 36
    Number of boundary faces = 0

Processor 31
    Number of cells = 11
    Number of faces shared with processor 7 = 5
    Number of faces shared with processor 9 = 1
    Number of faces shared with processor 28 = 6
    Number of faces shared with processor 32 = 6
    Number of faces shared with processor 33 = 5
    Number of faces shared with processor 37 = 3
    Number of faces shared with processor 41 = 2
    Number of faces shared with processor 46 = 1
    Number of faces shared with processor 51 = 4
    Number of faces shared with processor 53 = 1
    Number of processor patches = 10
    Number of processor faces = 34
    Number of boundary faces = 0

Processor 32
    Number of cells = 12
    Number of faces shared with processor 131 = 1
    Number of faces shared with processor 10 = 2
    Number of faces shared with processor 11 = 2
    Number of faces shared with processor 30 = 4
    Number of faces shared with processor 31 = 6
    Number of faces shared with processor 34 = 6
    Number of faces shared with processor 51 = 4
    Number of faces shared with processor 53 = 2
    Number of faces shared with processor 124 = 5
    Number of processor patches = 9
    Number of processor faces = 32
    Number of boundary faces = 0

Processor 33
    Number of cells = 11
    Number of faces shared with processor 8 = 5
    Number of faces shared with processor 9 = 2
    Number of faces shared with processor 29 = 4
    Number of faces shared with processor 31 = 5
    Number of faces shared with processor 34 = 6
    Number of faces shared with processor 39 = 1
    Number of faces shared with processor 41 = 5
    Number of faces shared with processor 57 = 1
    Number of faces shared with processor 59 = 3
    Number of faces shared with processor 61 = 2
    Number of processor patches = 10
    Number of processor faces = 34
    Number of boundary faces = 0

Processor 34
    Number of cells = 12
    Number of faces shared with processor 11 = 4
    Number of faces shared with processor 29 = 2
    Number of faces shared with processor 30 = 2
    Number of faces shared with processor 32 = 6
    Number of faces shared with processor 33 = 6
    Number of faces shared with processor 178 = 3
    Number of faces shared with processor 57 = 1
    Number of faces shared with processor 59 = 2
    Number of faces shared with processor 124 = 1
    Number of faces shared with processor 125 = 5
    Number of processor patches = 10
    Number of processor faces = 32
    Number of boundary faces = 0

Processor 35
    Number of cells = 11
    Number of faces shared with processor 17 = 1
    Number of faces shared with processor 19 = 2
    Number of faces shared with processor 36 = 6
    Number of faces shared with processor 37 = 4
    Number of faces shared with processor 38 = 3
    Number of faces shared with processor 39 = 4
    Number of faces shared with processor 43 = 2
    Number of faces shared with processor 44 = 3
    Number of faces shared with processor 619 = 3
    Number of processor patches = 9
    Number of processor faces = 28
    Number of boundary faces = 10

Processor 36
    Number of cells = 11
    Number of faces shared with processor 28 = 4
    Number of faces shared with processor 35 = 6
    Number of faces shared with processor 37 = 6
    Number of faces shared with processor 38 = 2
    Number of faces shared with processor 40 = 4
    Number of faces shared with processor 44 = 1
    Number of faces shared with processor 48 = 4
    Number of faces shared with processor 619 = 1
    Number of faces shared with processor 621 = 3
    Number of faces shared with processor 623 = 1
    Number of processor patches = 10
    Number of processor faces = 32
    Number of boundary faces = 0

Processor 37
    Number of cells = 12
    Number of faces shared with processor 7 = 1
    Number of faces shared with processor 19 = 2
    Number of faces shared with processor 20 = 2
    Number of faces shared with processor 27 = 1
    Number of faces shared with processor 28 = 1
    Number of faces shared with processor 31 = 3
    Number of faces shared with processor 35 = 4
    Number of faces shared with processor 36 = 6
    Number of faces shared with processor 39 = 2
    Number of faces shared with processor 41 = 4
    Number of faces shared with processor 43 = 2
    Number of faces shared with processor 46 = 4
    Number of processor patches = 12
    Number of processor faces = 32
    Number of boundary faces = 0

Processor 38
    Number of cells = 11
    Number of faces shared with processor 35 = 3
    Number of faces shared with processor 36 = 2
    Number of faces shared with processor 39 = 7
    Number of faces shared with processor 40 = 5
    Number of faces shared with processor 41 = 1
    Number of faces shared with processor 78 = 1
    Number of faces shared with processor 79 = 2
    Number of faces shared with processor 611 = 2
    Number of faces shared with processor 620 = 4
    Number of processor patches = 9
    Number of processor faces = 27
    Number of boundary faces = 5

Processor 39
    Number of cells = 12
    Number of faces shared with processor 17 = 3
    Number of faces shared with processor 18 = 3
    Number of faces shared with processor 33 = 1
    Number of faces shared with processor 35 = 4
    Number of faces shared with processor 37 = 2
    Number of faces shared with processor 38 = 7
    Number of faces shared with processor 41 = 7
    Number of faces shared with processor 78 = 3
    Number of faces shared with processor 82 = 3
    Number of processor patches = 9
    Number of processor faces = 33
    Number of boundary faces = 5

Processor 40
    Number of cells = 11
    Number of faces shared with processor 28 = 2
    Number of faces shared with processor 29 = 5
    Number of faces shared with processor 36 = 4
    Number of faces shared with processor 38 = 5
    Number of faces shared with processor 41 = 8
    Number of faces shared with processor 61 = 2
    Number of faces shared with processor 79 = 1
    Number of faces shared with processor 595 = 1
    Number of faces shared with processor 609 = 2
    Number of faces shared with processor 622 = 4
    Number of processor patches = 10
    Number of processor faces = 34
    Number of boundary faces = 0

Processor 41
    Number of cells = 12
    Number of faces shared with processor 8 = 2
    Number of faces shared with processor 18 = 1
    Number of faces shared with processor 20 = 1
    Number of faces shared with processor 29 = 1
    Number of faces shared with processor 31 = 2
    Number of faces shared with processor 33 = 5
    Number of faces shared with processor 37 = 4
    Number of faces shared with processor 38 = 1
    Number of faces shared with processor 39 = 7
    Number of faces shared with processor 40 = 8
    Number of faces shared with processor 61 = 2
    Number of faces shared with processor 79 = 1
    Number of faces shared with processor 82 = 1
    Number of processor patches = 13
    Number of processor faces = 36
    Number of boundary faces = 0

Processor 42
    Number of cells = 11
    Number of faces shared with processor 24 = 3
    Number of faces shared with processor 25 = 2
    Number of faces shared with processor 43 = 6
    Number of faces shared with processor 44 = 4
    Number of faces shared with processor 45 = 5
    Number of faces shared with processor 46 = 1
    Number of faces shared with processor 47 = 2
    Number of faces shared with processor 625 = 2
    Number of processor patches = 8
    Number of processor faces = 25
    Number of boundary faces = 13

Processor 43
    Number of cells = 11
    Number of faces shared with processor 19 = 1
    Number of faces shared with processor 24 = 1
    Number of faces shared with processor 26 = 3
    Number of faces shared with processor 35 = 2
    Number of faces shared with processor 37 = 2
    Number of faces shared with processor 42 = 6
    Number of faces shared with processor 44 = 6
    Number of faces shared with processor 45 = 1
    Number of faces shared with processor 46 = 4
    Number of processor patches = 9
    Number of processor faces = 26
    Number of boundary faces = 6

Processor 44
    Number of cells = 12
    Number of faces shared with processor 35 = 3
    Number of faces shared with processor 36 = 1
    Number of faces shared with processor 42 = 4
    Number of faces shared with processor 43 = 6
    Number of faces shared with processor 47 = 2
    Number of faces shared with processor 48 = 4
    Number of faces shared with processor 623 = 2
    Number of faces shared with processor 625 = 4
    Number of processor patches = 8
    Number of processor faces = 26
    Number of boundary faces = 6

Processor 45
    Number of cells = 11
    Number of faces shared with processor 2 = 1
    Number of faces shared with processor 25 = 2
    Number of faces shared with processor 27 = 1
    Number of faces shared with processor 42 = 5
    Number of faces shared with processor 43 = 1
    Number of faces shared with processor 46 = 6
    Number of faces shared with processor 47 = 6
    Number of faces shared with processor 49 = 5
    Number of faces shared with processor 51 = 2
    Number of faces shared with processor 54 = 2
    Number of processor patches = 10
    Number of processor faces = 31
    Number of boundary faces = 5

Processor 46
    Number of cells = 12
    Number of faces shared with processor 19 = 1
    Number of faces shared with processor 26 = 1
    Number of faces shared with processor 27 = 2
    Number of faces shared with processor 28 = 1
    Number of faces shared with processor 31 = 1
    Number of faces shared with processor 37 = 4
    Number of faces shared with processor 42 = 1
    Number of faces shared with processor 43 = 4
    Number of faces shared with processor 45 = 6
    Number of faces shared with processor 48 = 6
    Number of faces shared with processor 51 = 3
    Number of faces shared with processor 53 = 1
    Number of faces shared with processor 54 = 1
    Number of processor patches = 13
    Number of processor faces = 32
    Number of boundary faces = 0

Processor 47
    Number of cells = 11
    Number of faces shared with processor 42 = 2
    Number of faces shared with processor 44 = 2
    Number of faces shared with processor 45 = 6
    Number of faces shared with processor 48 = 6
    Number of faces shared with processor 55 = 6
    Number of faces shared with processor 624 = 4
    Number of faces shared with processor 638 = 1
    Number of processor patches = 7
    Number of processor faces = 27
    Number of boundary faces = 5

Processor 48
    Number of cells = 12
    Number of faces shared with processor 28 = 2
    Number of faces shared with processor 36 = 4
    Number of faces shared with processor 44 = 4
    Number of faces shared with processor 46 = 6
    Number of faces shared with processor 47 = 6
    Number of faces shared with processor 52 = 3
    Number of faces shared with processor 53 = 1
    Number of faces shared with processor 623 = 2
    Number of faces shared with processor 624 = 2
    Number of faces shared with processor 638 = 2
    Number of processor patches = 10
    Number of processor faces = 32
    Number of boundary faces = 0

Processor 49
    Number of cells = 11
    Number of faces shared with processor 3 = 5
    Number of faces shared with processor 5 = 2
    Number of faces shared with processor 134 = 1
    Number of faces shared with processor 25 = 2
    Number of faces shared with processor 45 = 5
    Number of faces shared with processor 50 = 7
    Number of faces shared with processor 51 = 2
    Number of faces shared with processor 54 = 4
    Number of processor patches = 8
    Number of processor faces = 28
    Number of boundary faces = 6

Processor 50
    Number of cells = 11
    Number of faces shared with processor 1 = 1
    Number of faces shared with processor 2 = 1
    Number of faces shared with processor 5 = 3
    Number of faces shared with processor 135 = 3
    Number of faces shared with processor 49 = 7
    Number of faces shared with processor 51 = 8
    Number of faces shared with processor 53 = 2
    Number of faces shared with processor 54 = 4
    Number of faces shared with processor 114 = 2
    Number of faces shared with processor 117 = 2
    Number of processor patches = 10
    Number of processor faces = 33
    Number of boundary faces = 1

Processor 51
    Number of cells = 12
    Number of faces shared with processor 2 = 5
    Number of faces shared with processor 131 = 1
    Number of faces shared with processor 7 = 1
    Number of faces shared with processor 10 = 2
    Number of faces shared with processor 27 = 2
    Number of faces shared with processor 31 = 4
    Number of faces shared with processor 32 = 4
    Number of faces shared with processor 45 = 2
    Number of faces shared with processor 46 = 3
    Number of faces shared with processor 49 = 2
    Number of faces shared with processor 50 = 8
    Number of faces shared with processor 53 = 4
    Number of faces shared with processor 54 = 1
    Number of faces shared with processor 117 = 1
    Number of processor patches = 14
    Number of processor faces = 40
    Number of boundary faces = 0

Processor 52
    Number of cells = 11
    Number of faces shared with processor 28 = 2
    Number of faces shared with processor 30 = 2
    Number of faces shared with processor 48 = 3
    Number of faces shared with processor 53 = 8
    Number of faces shared with processor 54 = 4
    Number of faces shared with processor 55 = 5
    Number of faces shared with processor 112 = 1
    Number of faces shared with processor 118 = 2
    Number of faces shared with processor 633 = 1
    Number of faces shared with processor 635 = 1
    Number of faces shared with processor 637 = 5
    Number of faces shared with processor 638 = 2
    Number of processor patches = 12
    Number of processor faces = 36
    Number of boundary faces = 0

Processor 53
    Number of cells = 12
    Number of faces shared with processor 28 = 3
    Number of faces shared with processor 30 = 2
    Number of faces shared with processor 31 = 1
    Number of faces shared with processor 32 = 2
    Number of faces shared with processor 46 = 1
    Number of faces shared with processor 48 = 1
    Number of faces shared with processor 50 = 2
    Number of faces shared with processor 51 = 4
    Number of faces shared with processor 52 = 8
    Number of faces shared with processor 54 = 4
    Number of faces shared with processor 117 = 2
    Number of faces shared with processor 118 = 1
    Number of faces shared with processor 119 = 1
    Number of processor patches = 13
    Number of processor faces = 32
    Number of boundary faces = 0

Processor 54
    Number of cells = 11
    Number of faces shared with processor 45 = 2
    Number of faces shared with processor 46 = 1
    Number of faces shared with processor 49 = 4
    Number of faces shared with processor 50 = 4
    Number of faces shared with processor 51 = 1
    Number of faces shared with processor 52 = 4
    Number of faces shared with processor 53 = 4
    Number of faces shared with processor 55 = 8
    Number of faces shared with processor 114 = 3
    Number of faces shared with processor 118 = 2
    Number of processor patches = 10
    Number of processor faces = 33
    Number of boundary faces = 3

Processor 55
    Number of cells = 12
    Number of faces shared with processor 47 = 6
    Number of faces shared with processor 52 = 5
    Number of faces shared with processor 54 = 8
    Number of faces shared with processor 112 = 2
    Number of faces shared with processor 114 = 1
    Number of faces shared with processor 637 = 1
    Number of faces shared with processor 639 = 6
    Number of processor patches = 7
    Number of processor faces = 29
    Number of boundary faces = 7

Processor 56
    Number of cells = 11
    Number of faces shared with processor 178 = 2
    Number of faces shared with processor 180 = 2
    Number of faces shared with processor 57 = 6
    Number of faces shared with processor 58 = 5
    Number of faces shared with processor 59 = 2
    Number of faces shared with processor 60 = 4
    Number of faces shared with processor 63 = 6
    Number of faces shared with processor 211 = 1
    Number of faces shared with processor 223 = 1
    Number of faces shared with processor 109 = 3
    Number of processor patches = 10
    Number of processor faces = 32
    Number of boundary faces = 0

Processor 57
    Number of cells = 11
    Number of faces shared with processor 8 = 3
    Number of faces shared with processor 9 = 2
    Number of faces shared with processor 11 = 1
    Number of faces shared with processor 33 = 1
    Number of faces shared with processor 34 = 1
    Number of faces shared with processor 178 = 1
    Number of faces shared with processor 56 = 6
    Number of faces shared with processor 58 = 6
    Number of faces shared with processor 59 = 3
    Number of faces shared with processor 61 = 1
    Number of faces shared with processor 210 = 1
    Number of faces shared with processor 83 = 3
    Number of faces shared with processor 108 = 4
    Number of faces shared with processor 109 = 3
    Number of processor patches = 14
    Number of processor faces = 36
    Number of boundary faces = 0

Processor 58
    Number of cells = 12
    Number of faces shared with processor 56 = 5
    Number of faces shared with processor 57 = 6
    Number of faces shared with processor 59 = 1
    Number of faces shared with processor 61 = 1
    Number of faces shared with processor 62 = 4
    Number of faces shared with processor 63 = 2
    Number of faces shared with processor 64 = 4
    Number of faces shared with processor 81 = 8
    Number of faces shared with processor 82 = 1
    Number of faces shared with processor 83 = 1
    Number of faces shared with processor 97 = 1
    Number of faces shared with processor 108 = 2
    Number of processor patches = 12
    Number of processor faces = 36
    Number of boundary faces = 0

Processor 59
    Number of cells = 11
    Number of faces shared with processor 29 = 4
    Number of faces shared with processor 33 = 3
    Number of faces shared with processor 34 = 2
    Number of faces shared with processor 178 = 2
    Number of faces shared with processor 179 = 2
    Number of faces shared with processor 56 = 2
    Number of faces shared with processor 57 = 3
    Number of faces shared with processor 58 = 1
    Number of faces shared with processor 60 = 8
    Number of faces shared with processor 61 = 5
    Number of faces shared with processor 62 = 1
    Number of faces shared with processor 66 = 3
    Number of faces shared with processor 68 = 2
    Number of faces shared with processor 591 = 1
    Number of faces shared with processor 593 = 1
    Number of faces shared with processor 597 = 2
    Number of processor patches = 16
    Number of processor faces = 42
    Number of boundary faces = 0

Processor 60
    Number of cells = 12
    Number of faces shared with processor 178 = 1
    Number of faces shared with processor 179 = 4
    Number of faces shared with processor 180 = 1
    Number of faces shared with processor 56 = 4
    Number of faces shared with processor 59 = 8
    Number of faces shared with processor 61 = 2
    Number of faces shared with processor 62 = 4
    Number of faces shared with processor 66 = 4
    Number of faces shared with processor 595 = 1
    Number of faces shared with processor 596 = 3
    Number of processor patches = 10
    Number of processor faces = 32
    Number of boundary faces = 0

Processor 61
    Number of cells = 11
    Number of faces shared with processor 29 = 1
    Number of faces shared with processor 33 = 2
    Number of faces shared with processor 40 = 2
    Number of faces shared with processor 41 = 2
    Number of faces shared with processor 57 = 1
    Number of faces shared with processor 58 = 1
    Number of faces shared with processor 59 = 5
    Number of faces shared with processor 60 = 2
    Number of faces shared with processor 62 = 8
    Number of faces shared with processor 79 = 4
    Number of faces shared with processor 82 = 2
    Number of faces shared with processor 595 = 2
    Number of faces shared with processor 609 = 2
    Number of processor patches = 13
    Number of processor faces = 34
    Number of boundary faces = 0

Processor 62
    Number of cells = 12
    Number of faces shared with processor 58 = 4
    Number of faces shared with processor 59 = 1
    Number of faces shared with processor 60 = 4
    Number of faces shared with processor 61 = 8
    Number of faces shared with processor 66 = 5
    Number of faces shared with processor 72 = 2
    Number of faces shared with processor 77 = 2
    Number of faces shared with processor 591 = 1
    Number of faces shared with processor 79 = 2
    Number of faces shared with processor 82 = 4
    Number of faces shared with processor 595 = 1
    Number of faces shared with processor 609 = 2
    Number of processor patches = 12
    Number of processor faces = 36
    Number of boundary faces = 0

Processor 63
    Number of cells = 11
    Number of faces shared with processor 180 = 4
    Number of faces shared with processor 56 = 6
    Number of faces shared with processor 58 = 2
    Number of faces shared with processor 64 = 6
    Number of faces shared with processor 65 = 5
    Number of faces shared with processor 66 = 2
    Number of faces shared with processor 68 = 1
    Number of faces shared with processor 220 = 1
    Number of faces shared with processor 223 = 1
    Number of faces shared with processor 97 = 4
    Number of processor patches = 10
    Number of processor faces = 32
    Number of boundary faces = 0

Processor 64
    Number of cells = 11
    Number of faces shared with processor 58 = 4
    Number of faces shared with processor 63 = 6
    Number of faces shared with processor 65 = 7
    Number of faces shared with processor 66 = 3
    Number of faces shared with processor 67 = 2
    Number of faces shared with processor 73 = 6
    Number of faces shared with processor 74 = 3
    Number of faces shared with processor 81 = 1
    Number of faces shared with processor 96 = 1
    Number of faces shared with processor 97 = 2
    Number of processor patches = 10
    Number of processor faces = 35
    Number of boundary faces = 3

Processor 65
    Number of cells = 12
    Number of faces shared with processor 173 = 2
    Number of faces shared with processor 63 = 5
    Number of faces shared with processor 64 = 7
    Number of faces shared with processor 67 = 2
    Number of faces shared with processor 69 = 4
    Number of faces shared with processor 220 = 2
    Number of faces shared with processor 96 = 4
    Number of processor patches = 7
    Number of processor faces = 26
    Number of boundary faces = 6

Processor 66
    Number of cells = 11
    Number of faces shared with processor 59 = 3
    Number of faces shared with processor 60 = 4
    Number of faces shared with processor 62 = 5
    Number of faces shared with processor 63 = 2
    Number of faces shared with processor 64 = 3
    Number of faces shared with processor 67 = 6
    Number of faces shared with processor 68 = 7
    Number of faces shared with processor 70 = 1
    Number of faces shared with processor 72 = 2
    Number of faces shared with processor 591 = 2
    Number of faces shared with processor 82 = 1
    Number of processor patches = 11
    Number of processor faces = 36
    Number of boundary faces = 0

Processor 67
    Number of cells = 12
    Number of faces shared with processor 64 = 2
    Number of faces shared with processor 65 = 2
    Number of faces shared with processor 66 = 6
    Number of faces shared with processor 68 = 1
    Number of faces shared with processor 69 = 5
    Number of faces shared with processor 70 = 2
    Number of faces shared with processor 72 = 4
    Number of faces shared with processor 592 = 4
    Number of processor patches = 8
    Number of processor faces = 26
    Number of boundary faces = 6

Processor 68
    Number of cells = 11
    Number of faces shared with processor 168 = 4
    Number of faces shared with processor 170 = 1
    Number of faces shared with processor 174 = 1
    Number of faces shared with processor 179 = 2
    Number of faces shared with processor 180 = 4
    Number of faces shared with processor 59 = 2
    Number of faces shared with processor 63 = 1
    Number of faces shared with processor 66 = 7
    Number of faces shared with processor 67 = 1
    Number of faces shared with processor 69 = 8
    Number of faces shared with processor 593 = 2
    Number of faces shared with processor 594 = 2
    Number of faces shared with processor 596 = 1
    Number of processor patches = 13
    Number of processor faces = 36
    Number of boundary faces = 0

Processor 69
    Number of cells = 12
    Number of faces shared with processor 170 = 3
    Number of faces shared with processor 173 = 2
    Number of faces shared with processor 174 = 4
    Number of faces shared with processor 180 = 1
    Number of faces shared with processor 65 = 4
    Number of faces shared with processor 67 = 5
    Number of faces shared with processor 68 = 8
    Number of faces shared with processor 594 = 2
    Number of processor patches = 8
    Number of processor faces = 29
    Number of boundary faces = 7

Processor 70
    Number of cells = 11
    Number of faces shared with processor 66 = 1
    Number of faces shared with processor 67 = 2
    Number of faces shared with processor 71 = 4
    Number of faces shared with processor 72 = 6
    Number of faces shared with processor 73 = 8
    Number of faces shared with processor 75 = 4
    Number of faces shared with processor 77 = 1
    Number of faces shared with processor 80 = 2
    Number of faces shared with processor 81 = 2
    Number of faces shared with processor 82 = 2
    Number of processor patches = 10
    Number of processor faces = 32
    Number of boundary faces = 6

Processor 71
    Number of cells = 11
    Number of faces shared with processor 70 = 4
    Number of faces shared with processor 72 = 6
    Number of faces shared with processor 77 = 6
    Number of faces shared with processor 80 = 1
    Number of faces shared with processor 605 = 2
    Number of faces shared with processor 606 = 4
    Number of processor patches = 6
    Number of processor faces = 23
    Number of boundary faces = 9

Processor 72
    Number of cells = 12
    Number of faces shared with processor 62 = 2
    Number of faces shared with processor 66 = 2
    Number of faces shared with processor 67 = 4
    Number of faces shared with processor 70 = 6
    Number of faces shared with processor 71 = 6
    Number of faces shared with processor 77 = 2
    Number of faces shared with processor 607 = 2
    Number of faces shared with processor 608 = 4
    Number of processor patches = 8
    Number of processor faces = 28
    Number of boundary faces = 4

Processor 73
    Number of cells = 11
    Number of faces shared with processor 64 = 6
    Number of faces shared with processor 70 = 8
    Number of faces shared with processor 74 = 6
    Number of faces shared with processor 75 = 5
    Number of faces shared with processor 81 = 3
    Number of processor patches = 5
    Number of processor faces = 28
    Number of boundary faces = 4

Processor 74
    Number of cells = 12
    Number of faces shared with processor 64 = 3
    Number of faces shared with processor 73 = 6
    Number of faces shared with processor 76 = 6
    Number of faces shared with processor 81 = 2
    Number of faces shared with processor 85 = 2
    Number of faces shared with processor 86 = 2
    Number of faces shared with processor 91 = 3
    Number of faces shared with processor 96 = 1
    Number of faces shared with processor 97 = 3
    Number of processor patches = 9
    Number of processor faces = 28
    Number of boundary faces = 4

Processor 75
    Number of cells = 11
    Number of faces shared with processor 70 = 4
    Number of faces shared with processor 73 = 5
    Number of faces shared with processor 76 = 6
    Number of faces shared with processor 77 = 1
    Number of faces shared with processor 80 = 3
    Number of faces shared with processor 81 = 3
    Number of processor patches = 6
    Number of processor faces = 22
    Number of boundary faces = 10

Processor 76
    Number of cells = 12
    Number of faces shared with processor 74 = 6
    Number of faces shared with processor 75 = 6
    Number of faces shared with processor 80 = 2
    Number of faces shared with processor 85 = 4
    Number of faces shared with processor 86 = 4
    Number of processor patches = 5
    Number of processor faces = 22
    Number of boundary faces = 10

Processor 77
    Number of cells = 11
    Number of faces shared with processor 62 = 2
    Number of faces shared with processor 70 = 1
    Number of faces shared with processor 71 = 6
    Number of faces shared with processor 72 = 2
    Number of faces shared with processor 75 = 1
    Number of faces shared with processor 78 = 5
    Number of faces shared with processor 79 = 5
    Number of faces shared with processor 80 = 3
    Number of faces shared with processor 81 = 1
    Number of faces shared with processor 82 = 2
    Number of faces shared with processor 605 = 2
    Number of faces shared with processor 607 = 1
    Number of faces shared with processor 610 = 1
    Number of processor patches = 13
    Number of processor faces = 32
    Number of boundary faces = 6

Processor 78
    Number of cells = 11
    Number of faces shared with processor 38 = 1
    Number of faces shared with processor 39 = 3
    Number of faces shared with processor 77 = 5
    Number of faces shared with processor 79 = 8
    Number of faces shared with processor 80 = 1
    Number of faces shared with processor 81 = 1
    Number of faces shared with processor 82 = 7
    Number of faces shared with processor 611 = 2
    Number of processor patches = 8
    Number of processor faces = 28
    Number of boundary faces = 8

Processor 79
    Number of cells = 12
    Number of faces shared with processor 38 = 2
    Number of faces shared with processor 40 = 1
    Number of faces shared with processor 41 = 1
    Number of faces shared with processor 61 = 4
    Number of faces shared with processor 62 = 2
    Number of faces shared with processor 77 = 5
    Number of faces shared with processor 78 = 8
    Number of faces shared with processor 82 = 3
    Number of faces shared with processor 610 = 4
    Number of faces shared with processor 611 = 2
    Number of processor patches = 10
    Number of processor faces = 32
    Number of boundary faces = 0

Processor 80
    Number of cells = 11
    Number of faces shared with processor 70 = 2
    Number of faces shared with processor 71 = 1
    Number of faces shared with processor 75 = 3
    Number of faces shared with processor 76 = 2
    Number of faces shared with processor 77 = 3
    Number of faces shared with processor 78 = 1
    Number of faces shared with processor 81 = 9
    Number of faces shared with processor 82 = 1
    Number of faces shared with processor 83 = 4
    Number of faces shared with processor 86 = 2
    Number of faces shared with processor 98 = 2
    Number of processor patches = 11
    Number of processor faces = 30
    Number of boundary faces = 6

Processor 81
    Number of cells = 12
    Number of faces shared with processor 58 = 8
    Number of faces shared with processor 64 = 1
    Number of faces shared with processor 70 = 2
    Number of faces shared with processor 73 = 3
    Number of faces shared with processor 74 = 2
    Number of faces shared with processor 75 = 3
    Number of faces shared with processor 77 = 1
    Number of faces shared with processor 78 = 1
    Number of faces shared with processor 80 = 9
    Number of faces shared with processor 82 = 5
    Number of faces shared with processor 83 = 2
    Number of faces shared with processor 86 = 1
    Number of faces shared with processor 97 = 1
    Number of faces shared with processor 98 = 1
    Number of processor patches = 14
    Number of processor faces = 40
    Number of boundary faces = 0

Processor 82
    Number of cells = 11
    Number of faces shared with processor 39 = 3
    Number of faces shared with processor 41 = 1
    Number of faces shared with processor 58 = 1
    Number of faces shared with processor 61 = 2
    Number of faces shared with processor 62 = 4
    Number of faces shared with processor 66 = 1
    Number of faces shared with processor 70 = 2
    Number of faces shared with processor 77 = 2
    Number of faces shared with processor 78 = 7
    Number of faces shared with processor 79 = 3
    Number of faces shared with processor 80 = 1
    Number of faces shared with processor 81 = 5
    Number of faces shared with processor 83 = 6
    Number of processor patches = 13
    Number of processor faces = 38
    Number of boundary faces = 2

Processor 83
    Number of cells = 12
    Number of faces shared with processor 17 = 2
    Number of faces shared with processor 18 = 4
    Number of faces shared with processor 57 = 3
    Number of faces shared with processor 58 = 1
    Number of faces shared with processor 80 = 4
    Number of faces shared with processor 81 = 2
    Number of faces shared with processor 82 = 6
    Number of faces shared with processor 98 = 1
    Number of faces shared with processor 99 = 5
    Number of processor patches = 9
    Number of processor faces = 28
    Number of boundary faces = 4

Processor 84
    Number of cells = 11
    Number of faces shared with processor 85 = 2
    Number of faces shared with processor 86 = 8
    Number of faces shared with processor 88 = 3
    Number of faces shared with processor 90 = 6
    Number of faces shared with processor 91 = 2
    Number of faces shared with processor 92 = 2
    Number of faces shared with processor 98 = 2
    Number of faces shared with processor 102 = 4
    Number of processor patches = 8
    Number of processor faces = 29
    Number of boundary faces = 3

Processor 85
    Number of cells = 11
    Number of faces shared with processor 74 = 2
    Number of faces shared with processor 76 = 4
    Number of faces shared with processor 84 = 2
    Number of faces shared with processor 86 = 6
    Number of faces shared with processor 88 = 5
    Number of faces shared with processor 91 = 4
    Number of processor patches = 6
    Number of processor faces = 23
    Number of boundary faces = 9

Processor 86
    Number of cells = 11
    Number of faces shared with processor 74 = 2
    Number of faces shared with processor 76 = 4
    Number of faces shared with processor 80 = 2
    Number of faces shared with processor 81 = 1
    Number of faces shared with processor 84 = 8
    Number of faces shared with processor 85 = 6
    Number of faces shared with processor 88 = 1
    Number of faces shared with processor 91 = 1
    Number of faces shared with processor 97 = 2
    Number of faces shared with processor 98 = 6
    Number of processor patches = 10
    Number of processor faces = 33
    Number of boundary faces = 5

Processor 87
    Number of cells = 11
    Number of faces shared with processor 315 = 2
    Number of faces shared with processor 317 = 3
    Number of faces shared with processor 328 = 1
    Number of faces shared with processor 88 = 6
    Number of faces shared with processor 89 = 5
    Number of faces shared with processor 90 = 3
    Number of faces shared with processor 93 = 2
    Number of processor patches = 7
    Number of processor faces = 22
    Number of boundary faces = 10

Processor 88
    Number of cells = 12
    Number of faces shared with processor 84 = 3
    Number of faces shared with processor 85 = 5
    Number of faces shared with processor 86 = 1
    Number of faces shared with processor 87 = 6
    Number of faces shared with processor 90 = 3
    Number of faces shared with processor 93 = 4
    Number of processor patches = 6
    Number of processor faces = 22
    Number of boundary faces = 10

Processor 89
    Number of cells = 11
    Number of faces shared with processor 315 = 1
    Number of faces shared with processor 316 = 3
    Number of faces shared with processor 317 = 1
    Number of faces shared with processor 320 = 5
    Number of faces shared with processor 322 = 3
    Number of faces shared with processor 328 = 2
    Number of faces shared with processor 87 = 5
    Number of faces shared with processor 90 = 7
    Number of faces shared with processor 92 = 3
    Number of faces shared with processor 101 = 6
    Number of faces shared with processor 105 = 1
    Number of processor patches = 11
    Number of processor faces = 37
    Number of boundary faces = 3

Processor 90
    Number of cells = 12
    Number of faces shared with processor 84 = 6
    Number of faces shared with processor 87 = 3
    Number of faces shared with processor 88 = 3
    Number of faces shared with processor 89 = 7
    Number of faces shared with processor 92 = 3
    Number of faces shared with processor 101 = 4
    Number of faces shared with processor 102 = 2
    Number of processor patches = 7
    Number of processor faces = 28
    Number of boundary faces = 4

Processor 91
    Number of cells = 11
    Number of faces shared with processor 74 = 3
    Number of faces shared with processor 84 = 2
    Number of faces shared with processor 85 = 4
    Number of faces shared with processor 86 = 1
    Number of faces shared with processor 92 = 4
    Number of faces shared with processor 93 = 4
    Number of faces shared with processor 94 = 2
    Number of faces shared with processor 95 = 2
    Number of faces shared with processor 96 = 4
    Number of faces shared with processor 97 = 5
    Number of faces shared with processor 98 = 1
    Number of faces shared with processor 111 = 1
    Number of processor patches = 12
    Number of processor faces = 33
    Number of boundary faces = 3

Processor 92
    Number of cells = 11
    Number of faces shared with processor 322 = 2
    Number of faces shared with processor 327 = 1
    Number of faces shared with processor 328 = 2
    Number of faces shared with processor 84 = 2
    Number of faces shared with processor 89 = 3
    Number of faces shared with processor 90 = 3
    Number of faces shared with processor 91 = 4
    Number of faces shared with processor 93 = 6
    Number of faces shared with processor 94 = 2
    Number of faces shared with processor 95 = 2
    Number of faces shared with processor 105 = 5
    Number of processor patches = 11
    Number of processor faces = 32
    Number of boundary faces = 0

Processor 93
    Number of cells = 12
    Number of faces shared with processor 327 = 2
    Number of faces shared with processor 328 = 4
    Number of faces shared with processor 87 = 2
    Number of faces shared with processor 88 = 4
    Number of faces shared with processor 91 = 4
    Number of faces shared with processor 92 = 6
    Number of faces shared with processor 95 = 4
    Number of processor patches = 7
    Number of processor faces = 26
    Number of boundary faces = 6

Processor 94
    Number of cells = 11
    Number of faces shared with processor 333 = 1
    Number of faces shared with processor 334 = 1
    Number of faces shared with processor 215 = 1
    Number of faces shared with processor 218 = 2
    Number of faces shared with processor 91 = 2
    Number of faces shared with processor 92 = 2
    Number of faces shared with processor 223 = 3
    Number of faces shared with processor 95 = 6
    Number of faces shared with processor 96 = 1
    Number of faces shared with processor 97 = 7
    Number of faces shared with processor 109 = 2
    Number of faces shared with processor 110 = 4
    Number of processor patches = 12
    Number of processor faces = 32
    Number of boundary faces = 0

Processor 95
    Number of cells = 12
    Number of faces shared with processor 322 = 1
    Number of faces shared with processor 327 = 3
    Number of faces shared with processor 333 = 1
    Number of faces shared with processor 334 = 5
    Number of faces shared with processor 217 = 4
    Number of faces shared with processor 91 = 2
    Number of faces shared with processor 92 = 2
    Number of faces shared with processor 93 = 4
    Number of faces shared with processor 94 = 6
    Number of faces shared with processor 96 = 4
    Number of faces shared with processor 107 = 1
    Number of processor patches = 11
    Number of processor faces = 33
    Number of boundary faces = 5

Processor 96
    Number of cells = 11
    Number of faces shared with processor 64 = 1
    Number of faces shared with processor 65 = 4
    Number of faces shared with processor 74 = 1
    Number of faces shared with processor 217 = 2
    Number of faces shared with processor 91 = 4
    Number of faces shared with processor 220 = 2
    Number of faces shared with processor 94 = 1
    Number of faces shared with processor 95 = 4
    Number of faces shared with processor 97 = 7
    Number of processor patches = 9
    Number of processor faces = 26
    Number of boundary faces = 6

Processor 97
    Number of cells = 12
    Number of faces shared with processor 58 = 1
    Number of faces shared with processor 63 = 4
    Number of faces shared with processor 64 = 2
    Number of faces shared with processor 74 = 3
    Number of faces shared with processor 81 = 1
    Number of faces shared with processor 86 = 2
    Number of faces shared with processor 91 = 5
    Number of faces shared with processor 94 = 7
    Number of faces shared with processor 223 = 2
    Number of faces shared with processor 96 = 7
    Number of faces shared with processor 98 = 1
    Number of faces shared with processor 108 = 3
    Number of faces shared with processor 109 = 2
    Number of processor patches = 13
    Number of processor faces = 40
    Number of boundary faces = 0

Processor 98
    Number of cells = 11
    Number of faces shared with processor 80 = 2
    Number of faces shared with processor 81 = 1
    Number of faces shared with processor 83 = 1
    Number of faces shared with processor 84 = 2
    Number of faces shared with processor 86 = 6
    Number of faces shared with processor 91 = 1
    Number of faces shared with processor 97 = 1
    Number of faces shared with processor 99 = 8
    Number of faces shared with processor 100 = 2
    Number of faces shared with processor 102 = 4
    Number of faces shared with processor 105 = 1
    Number of faces shared with processor 108 = 4
    Number of faces shared with processor 111 = 2
    Number of processor patches = 13
    Number of processor faces = 35
    Number of boundary faces = 3

Processor 99
    Number of cells = 11
    Number of faces shared with processor 17 = 1
    Number of faces shared with processor 18 = 2
    Number of faces shared with processor 83 = 5
    Number of faces shared with processor 98 = 8
    Number of faces shared with processor 100 = 9
    Number of faces shared with processor 108 = 4
    Number of processor patches = 6
    Number of processor faces = 29
    Number of boundary faces = 3

Processor 100
    Number of cells = 12
    Number of faces shared with processor 16 = 6
    Number of faces shared with processor 17 = 1
    Number of faces shared with processor 18 = 2
    Number of faces shared with processor 98 = 2
    Number of faces shared with processor 99 = 9
    Number of faces shared with processor 102 = 5
    Number of faces shared with processor 103 = 3
    Number of faces shared with processor 104 = 2
    Number of faces shared with processor 111 = 4
    Number of processor patches = 9
    Number of processor faces = 34
    Number of boundary faces = 4

Processor 101
    Number of cells = 11
    Number of faces shared with processor 318 = 3
    Number of faces shared with processor 320 = 2
    Number of faces shared with processor 321 = 2
    Number of faces shared with processor 89 = 6
    Number of faces shared with processor 90 = 4
    Number of faces shared with processor 102 = 8
    Number of faces shared with processor 104 = 4
    Number of faces shared with processor 105 = 3
    Number of faces shared with processor 107 = 1
    Number of processor patches = 9
    Number of processor faces = 33
    Number of boundary faces = 3

Processor 102
    Number of cells = 12
    Number of faces shared with processor 84 = 4
    Number of faces shared with processor 90 = 2
    Number of faces shared with processor 98 = 4
    Number of faces shared with processor 100 = 5
    Number of faces shared with processor 101 = 8
    Number of faces shared with processor 103 = 1
    Number of faces shared with processor 104 = 6
    Number of faces shared with processor 105 = 2
    Number of processor patches = 8
    Number of processor faces = 32
    Number of boundary faces = 6

Processor 103
    Number of cells = 11
    Number of faces shared with processor 16 = 3
    Number of faces shared with processor 224 = 2
    Number of faces shared with processor 226 = 4
    Number of faces shared with processor 227 = 3
    Number of faces shared with processor 100 = 3
    Number of faces shared with processor 102 = 1
    Number of faces shared with processor 104 = 9
    Number of faces shared with processor 106 = 3
    Number of processor patches = 8
    Number of processor faces = 28
    Number of boundary faces = 4

Processor 104
    Number of cells = 12
    Number of faces shared with processor 318 = 2
    Number of faces shared with processor 321 = 4
    Number of faces shared with processor 227 = 3
    Number of faces shared with processor 100 = 2
    Number of faces shared with processor 101 = 4
    Number of faces shared with processor 102 = 6
    Number of faces shared with processor 103 = 9
    Number of faces shared with processor 106 = 2
    Number of faces shared with processor 107 = 3
    Number of processor patches = 9
    Number of processor faces = 35
    Number of boundary faces = 3

Processor 105
    Number of cells = 11
    Number of faces shared with processor 308 = 1
    Number of faces shared with processor 312 = 1
    Number of faces shared with processor 322 = 3
    Number of faces shared with processor 89 = 1
    Number of faces shared with processor 92 = 5
    Number of faces shared with processor 98 = 1
    Number of faces shared with processor 101 = 3
    Number of faces shared with processor 102 = 2
    Number of faces shared with processor 106 = 2
    Number of faces shared with processor 107 = 8
    Number of faces shared with processor 110 = 2
    Number of faces shared with processor 111 = 3
    Number of processor patches = 12
    Number of processor faces = 32
    Number of boundary faces = 0

Processor 106
    Number of cells = 11
    Number of faces shared with processor 12 = 1
    Number of faces shared with processor 13 = 2
    Number of faces shared with processor 16 = 1
    Number of faces shared with processor 308 = 1
    Number of faces shared with processor 309 = 1
    Number of faces shared with processor 226 = 2
    Number of faces shared with processor 228 = 2
    Number of faces shared with processor 103 = 3
    Number of faces shared with processor 104 = 2
    Number of faces shared with processor 105 = 2
    Number of faces shared with processor 107 = 8
    Number of faces shared with processor 110 = 1
    Number of faces shared with processor 111 = 6
    Number of faces shared with processor 245 = 2
    Number of faces shared with processor 246 = 2
    Number of processor patches = 15
    Number of processor faces = 36
    Number of boundary faces = 0

Processor 107
    Number of cells = 12
    Number of faces shared with processor 308 = 7
    Number of faces shared with processor 309 = 1
    Number of faces shared with processor 310 = 2
    Number of faces shared with processor 318 = 3
    Number of faces shared with processor 322 = 1
    Number of faces shared with processor 333 = 1
    Number of faces shared with processor 95 = 1
    Number of faces shared with processor 228 = 2
    Number of faces shared with processor 101 = 1
    Number of faces shared with processor 104 = 3
    Number of faces shared with processor 105 = 8
    Number of faces shared with processor 106 = 8
    Number of faces shared with processor 110 = 3
    Number of faces shared with processor 111 = 1
    Number of processor patches = 14
    Number of processor faces = 42
    Number of boundary faces = 0

Processor 108
    Number of cells = 11
    Number of faces shared with processor 8 = 1
    Number of faces shared with processor 9 = 1
    Number of faces shared with processor 57 = 4
    Number of faces shared with processor 58 = 2
    Number of faces shared with processor 97 = 3
    Number of faces shared with processor 98 = 4
    Number of faces shared with processor 99 = 4
    Number of faces shared with processor 109 = 6
    Number of faces shared with processor 111 = 7
    Number of processor patches = 9
    Number of processor faces = 32
    Number of boundary faces = 0

Processor 109
    Number of cells = 12
    Number of faces shared with processor 9 = 1
    Number of faces shared with processor 11 = 1
    Number of faces shared with processor 12 = 1
    Number of faces shared with processor 56 = 3
    Number of faces shared with processor 57 = 3
    Number of faces shared with processor 211 = 5
    Number of faces shared with processor 94 = 2
    Number of faces shared with processor 223 = 1
    Number of faces shared with processor 97 = 2
    Number of faces shared with processor 108 = 6
    Number of faces shared with processor 110 = 6
    Number of faces shared with processor 111 = 1
    Number of processor patches = 12
    Number of processor faces = 32
    Number of boundary faces = 0

Processor 110
    Number of cells = 12
    Number of faces shared with processor 12 = 2
    Number of faces shared with processor 310 = 2
    Number of faces shared with processor 333 = 1
    Number of faces shared with processor 212 = 6
    Number of faces shared with processor 94 = 4
    Number of faces shared with processor 105 = 2
    Number of faces shared with processor 106 = 1
    Number of faces shared with processor 107 = 3
    Number of faces shared with processor 109 = 6
    Number of faces shared with processor 111 = 5
    Number of processor patches = 10
    Number of processor faces = 32
    Number of boundary faces = 0

Processor 111
    Number of cells = 12
    Number of faces shared with processor 8 = 1
    Number of faces shared with processor 9 = 2
    Number of faces shared with processor 12 = 3
    Number of faces shared with processor 13 = 4
    Number of faces shared with processor 16 = 2
    Number of faces shared with processor 91 = 1
    Number of faces shared with processor 98 = 2
    Number of faces shared with processor 100 = 4
    Number of faces shared with processor 105 = 3
    Number of faces shared with processor 106 = 6
    Number of faces shared with processor 107 = 1
    Number of faces shared with processor 108 = 7
    Number of faces shared with processor 109 = 1
    Number of faces shared with processor 110 = 5
    Number of processor patches = 14
    Number of processor faces = 42
    Number of boundary faces = 0

Processor 112
    Number of cells = 11
    Number of faces shared with processor 140 = 3
    Number of faces shared with processor 52 = 1
    Number of faces shared with processor 55 = 2
    Number of faces shared with processor 486 = 2
    Number of faces shared with processor 488 = 4
    Number of faces shared with processor 489 = 4
    Number of faces shared with processor 113 = 6
    Number of faces shared with processor 114 = 4
    Number of faces shared with processor 115 = 4
    Number of faces shared with processor 118 = 4
    Number of processor patches = 10
    Number of processor faces = 34
    Number of boundary faces = 4

Processor 113
    Number of cells = 11
    Number of faces shared with processor 134 = 4
    Number of faces shared with processor 140 = 5
    Number of faces shared with processor 112 = 6
    Number of faces shared with processor 114 = 6
    Number of faces shared with processor 115 = 1
    Number of faces shared with processor 116 = 4
    Number of processor patches = 6
    Number of processor faces = 26
    Number of boundary faces = 6

Processor 114
    Number of cells = 12
    Number of faces shared with processor 134 = 2
    Number of faces shared with processor 135 = 2
    Number of faces shared with processor 50 = 2
    Number of faces shared with processor 54 = 3
    Number of faces shared with processor 55 = 1
    Number of faces shared with processor 112 = 4
    Number of faces shared with processor 113 = 6
    Number of faces shared with processor 117 = 2
    Number of faces shared with processor 118 = 4
    Number of processor patches = 9
    Number of processor faces = 26
    Number of boundary faces = 6

Processor 115
    Number of cells = 11
    Number of faces shared with processor 140 = 1
    Number of faces shared with processor 143 = 1
    Number of faces shared with processor 144 = 3
    Number of faces shared with processor 147 = 1
    Number of faces shared with processor 486 = 5
    Number of faces shared with processor 112 = 4
    Number of faces shared with processor 113 = 1
    Number of faces shared with processor 116 = 6
    Number of faces shared with processor 118 = 7
    Number of faces shared with processor 121 = 3
    Number of processor patches = 10
    Number of processor faces = 32
    Number of boundary faces = 0

Processor 116
    Number of cells = 12
    Number of faces shared with processor 131 = 1
    Number of faces shared with processor 133 = 5
    Number of faces shared with processor 143 = 4
    Number of faces shared with processor 144 = 2
    Number of faces shared with processor 113 = 4
    Number of faces shared with processor 115 = 6
    Number of faces shared with processor 117 = 5
    Number of faces shared with processor 118 = 1
    Number of faces shared with processor 123 = 4
    Number of processor patches = 9
    Number of processor faces = 32
    Number of boundary faces = 0

Processor 117
    Number of cells = 11
    Number of faces shared with processor 131 = 3
    Number of faces shared with processor 135 = 4
    Number of faces shared with processor 50 = 2
    Number of faces shared with processor 51 = 1
    Number of faces shared with processor 53 = 2
    Number of faces shared with processor 114 = 2
    Number of faces shared with processor 116 = 5
    Number of faces shared with processor 118 = 7
    Number of faces shared with processor 119 = 1
    Number of faces shared with processor 123 = 1
    Number of faces shared with processor 124 = 6
    Number of processor patches = 11
    Number of processor faces = 34
    Number of boundary faces = 0

Processor 118
    Number of cells = 12
    Number of faces shared with processor 52 = 2
    Number of faces shared with processor 53 = 1
    Number of faces shared with processor 54 = 2
    Number of faces shared with processor 479 = 2
    Number of faces shared with processor 481 = 1
    Number of faces shared with processor 486 = 2
    Number of faces shared with processor 112 = 4
    Number of faces shared with processor 114 = 4
    Number of faces shared with processor 115 = 7
    Number of faces shared with processor 116 = 1
    Number of faces shared with processor 117 = 7
    Number of faces shared with processor 119 = 6
    Number of faces shared with processor 121 = 1
    Number of processor patches = 13
    Number of processor faces = 40
    Number of boundary faces = 0

Processor 119
    Number of cells = 11
    Number of faces shared with processor 30 = 8
    Number of faces shared with processor 179 = 2
    Number of faces shared with processor 53 = 1
    Number of faces shared with processor 479 = 2
    Number of faces shared with processor 480 = 2
    Number of faces shared with processor 117 = 1
    Number of faces shared with processor 118 = 6
    Number of faces shared with processor 120 = 2
    Number of faces shared with processor 121 = 8
    Number of faces shared with processor 506 = 1
    Number of faces shared with processor 124 = 4
    Number of faces shared with processor 125 = 1
    Number of processor patches = 12
    Number of processor faces = 38
    Number of boundary faces = 0

Processor 120
    Number of cells = 11
    Number of faces shared with processor 148 = 4
    Number of faces shared with processor 153 = 1
    Number of faces shared with processor 177 = 7
    Number of faces shared with processor 482 = 2
    Number of faces shared with processor 119 = 2
    Number of faces shared with processor 121 = 8
    Number of faces shared with processor 122 = 1
    Number of faces shared with processor 506 = 3
    Number of faces shared with processor 123 = 3
    Number of faces shared with processor 125 = 3
    Number of processor patches = 10
    Number of processor faces = 34
    Number of boundary faces = 0

Processor 121
    Number of cells = 12
    Number of faces shared with processor 147 = 2
    Number of faces shared with processor 148 = 2
    Number of faces shared with processor 480 = 2
    Number of faces shared with processor 481 = 2
    Number of faces shared with processor 482 = 2
    Number of faces shared with processor 115 = 3
    Number of faces shared with processor 118 = 1
    Number of faces shared with processor 119 = 8
    Number of faces shared with processor 120 = 8
    Number of faces shared with processor 123 = 4
    Number of faces shared with processor 124 = 2
    Number of processor patches = 11
    Number of processor faces = 36
    Number of boundary faces = 0

Processor 122
    Number of cells = 11
[...]
Processor 230: field transfer
Processor 231: field transfer
Processor 232: field transfer
Processor 233: field transfer
Processor 234: field transfer
Processor 235: field transfer
Processor 236: field transfer
Processor 237: field transfer
Processor 238: field transfer
Processor 239: field transfer
Processor 240: field transfer
Processor 241: field transfer
Processor 242: field transfer
Processor 243: field transfer
Processor 244: field transfer
Processor 245: field transfer
Processor 246: field transfer
Processor 247: field transfer
Processor 248: field transfer
Processor 249: field transfer
Processor 250: field transfer
Processor 251: field transfer
Processor 252: field transfer
Processor 253: field transfer
Processor 254: field transfer
Processor 255: field transfer
Processor 256: field transfer
Processor 257: field transfer
Processor 258: field transfer
Processor 259: field transfer
Processor 260: field transfer
Processor 261: field transfer
Processor 262: field transfer
Processor 263: field transfer
Processor 264: field transfer
Processor 265: field transfer
Processor 266: field transfer
Processor 267: field transfer
Processor 268: field transfer
Processor 269: field transfer
Processor 270: field transfer
Processor 271: field transfer
Processor 272: field transfer
Processor 273: field transfer
Processor 274: field transfer
Processor 275: field transfer
Processor 276: field transfer
Processor 277: field transfer
Processor 278: field transfer
Processor 279: field transfer
Processor 280: field transfer
Processor 281: field transfer
Processor 282: field transfer
Processor 283: field transfer
Processor 284: field transfer
Processor 285: field transfer
Processor 286: field transfer
Processor 287: field transfer
Processor 288: field transfer
Processor 289: field transfer
Processor 290: field transfer
Processor 291: field transfer
Processor 292: field transfer
Processor 293: field transfer
Processor 294: field transfer
Processor 295: field transfer
Processor 296: field transfer
Processor 297: field transfer
Processor 298: field transfer
Processor 299: field transfer
Processor 300: field transfer
Processor 301: field transfer
Processor 302: field transfer
Processor 303: field transfer
Processor 304: field transfer
Processor 305: field transfer
Processor 306: field transfer
Processor 307: field transfer
Processor 308: field transfer
Processor 309: field transfer
Processor 310: field transfer
Processor 311: field transfer
Processor 312: field transfer
Processor 313: field transfer
Processor 314: field transfer
Processor 315: field transfer
Processor 316: field transfer
Processor 317: field transfer
Processor 318: field transfer
Processor 319: field transfer
Processor 320: field transfer
Processor 321: field transfer
Processor 322: field transfer
Processor 323: field transfer
Processor 324: field transfer
Processor 325: field transfer
Processor 326: field transfer
Processor 327: field transfer
Processor 328: field transfer
Processor 329: field transfer
Processor 330: field transfer
Processor 331: field transfer
Processor 332: field transfer
Processor 333: field transfer
Processor 334: field transfer
Processor 335: field transfer
Processor 336: field transfer
Processor 337: field transfer
Processor 338: field transfer
Processor 339: field transfer
Processor 340: field transfer
Processor 341: field transfer
Processor 342: field transfer
Processor 343: field transfer
Processor 344: field transfer
Processor 345: field transfer
Processor 346: field transfer
Processor 347: field transfer
Processor 348: field transfer
Processor 349: field transfer
Processor 350: field transfer
Processor 351: field transfer
Processor 352: field transfer
Processor 353: field transfer
Processor 354: field transfer
Processor 355: field transfer
Processor 356: field transfer
Processor 357: field transfer
Processor 358: field transfer
Processor 359: field transfer
Processor 360: field transfer
Processor 361: field transfer
Processor 362: field transfer
Processor 363: field transfer
Processor 364: field transfer
Processor 365: field transfer
Processor 366: field transfer
Processor 367: field transfer
Processor 368: field transfer
Processor 369: field transfer
Processor 370: field transfer
Processor 371: field transfer
Processor 372: field transfer
Processor 373: field transfer
Processor 374: field transfer
Processor 375: field transfer
Processor 376: field transfer
Processor 377: field transfer
Processor 378: field transfer
Processor 379: field transfer
Processor 380: field transfer
Processor 381: field transfer
Processor 382: field transfer
Processor 383: field transfer
Processor 384: field transfer
Processor 385: field transfer
Processor 386: field transfer
Processor 387: field transfer
Processor 388: field transfer
Processor 389: field transfer
Processor 390: field transfer
Processor 391: field transfer
Processor 392: field transfer
Processor 393: field transfer
Processor 394: field transfer
Processor 395: field transfer
Processor 396: field transfer
Processor 397: field transfer
Processor 398: field transfer
Processor 399: field transfer
Processor 400: field transfer
Processor 401: field transfer
Processor 402: field transfer
Processor 403: field transfer
Processor 404: field transfer
Processor 405: field transfer
Processor 406: field transfer
Processor 407: field transfer
Processor 408: field transfer
Processor 409: field transfer
Processor 410: field transfer
Processor 411: field transfer
Processor 412: field transfer
Processor 413: field transfer
Processor 414: field transfer
Processor 415: field transfer
Processor 416: field transfer
Processor 417: field transfer
Processor 418: field transfer
Processor 419: field transfer
Processor 420: field transfer
Processor 421: field transfer
Processor 422: field transfer
Processor 423: field transfer
Processor 424: field transfer
Processor 425: field transfer
Processor 426: field transfer
Processor 427: field transfer
Processor 428: field transfer
Processor 429: field transfer
Processor 430: field transfer
Processor 431: field transfer
Processor 432: field transfer
Processor 433: field transfer
Processor 434: field transfer
Processor 435: field transfer
Processor 436: field transfer
Processor 437: field transfer
Processor 438: field transfer
Processor 439: field transfer
Processor 440: field transfer
Processor 441: field transfer
Processor 442: field transfer
Processor 443: field transfer
Processor 444: field transfer
Processor 445: field transfer
Processor 446: field transfer
Processor 447: field transfer
Processor 448: field transfer
Processor 449: field transfer
Processor 450: field transfer
Processor 451: field transfer
Processor 452: field transfer
Processor 453: field transfer
Processor 454: field transfer
Processor 455: field transfer
Processor 456: field transfer
Processor 457: field transfer
Processor 458: field transfer
Processor 459: field transfer
Processor 460: field transfer
Processor 461: field transfer
Processor 462: field transfer
Processor 463: field transfer
Processor 464: field transfer
Processor 465: field transfer
Processor 466: field transfer
Processor 467: field transfer
Processor 468: field transfer
Processor 469: field transfer
Processor 470: field transfer
Processor 471: field transfer
Processor 472: field transfer
Processor 473: field transfer
Processor 474: field transfer
Processor 475: field transfer
Processor 476: field transfer
Processor 477: field transfer
Processor 478: field transfer
Processor 479: field transfer
Processor 480: field transfer
Processor 481: field transfer
Processor 482: field transfer
Processor 483: field transfer
Processor 484: field transfer
Processor 485: field transfer
Processor 486: field transfer
Processor 487: field transfer
Processor 488: field transfer
Processor 489: field transfer
Processor 490: field transfer
Processor 491: field transfer
Processor 492: field transfer
Processor 493: field transfer
Processor 494: field transfer
Processor 495: field transfer
Processor 496: field transfer
Processor 497: field transfer
Processor 498: field transfer
Processor 499: field transfer
Processor 500: field transfer
Processor 501: field transfer
Processor 502: field transfer
Processor 503: field transfer
Processor 504: field transfer
Processor 505: field transfer
Processor 506: field transfer
Processor 507: field transfer
Processor 508: field transfer
Processor 509: field transfer
Processor 510: field transfer
Processor 511: field transfer
Processor 512: field transfer
Processor 513: field transfer
Processor 514: field transfer
Processor 515: field transfer
Processor 516: field transfer
Processor 517: field transfer
Processor 518: field transfer
Processor 519: field transfer
Processor 520: field transfer
Processor 521: field transfer
Processor 522: field transfer
Processor 523: field transfer
Processor 524: field transfer
Processor 525: field transfer
Processor 526: field transfer
Processor 527: field transfer
Processor 528: field transfer
Processor 529: field transfer
Processor 530: field transfer
Processor 531: field transfer
Processor 532: field transfer
Processor 533: field transfer
Processor 534: field transfer
Processor 535: field transfer
Processor 536: field transfer
Processor 537: field transfer
Processor 538: field transfer
Processor 539: field transfer
Processor 540: field transfer
Processor 541: field transfer
Processor 542: field transfer
Processor 543: field transfer
Processor 544: field transfer
Processor 545: field transfer
Processor 546: field transfer
Processor 547: field transfer
Processor 548: field transfer
Processor 549: field transfer
Processor 550: field transfer
Processor 551: field transfer
Processor 552: field transfer
Processor 553: field transfer
Processor 554: field transfer
Processor 555: field transfer
Processor 556: field transfer
Processor 557: field transfer
Processor 558: field transfer
Processor 559: field transfer
Processor 560: field transfer
Processor 561: field transfer
Processor 562: field transfer
Processor 563: field transfer
Processor 564: field transfer
Processor 565: field transfer
Processor 566: field transfer
Processor 567: field transfer
Processor 568: field transfer
Processor 569: field transfer
Processor 570: field transfer
Processor 571: field transfer
Processor 572: field transfer
Processor 573: field transfer
Processor 574: field transfer
Processor 575: field transfer
Processor 576: field transfer
Processor 577: field transfer
Processor 578: field transfer
Processor 579: field transfer
Processor 580: field transfer
Processor 581: field transfer
Processor 582: field transfer
Processor 583: field transfer
Processor 584: field transfer
Processor 585: field transfer
Processor 586: field transfer
Processor 587: field transfer
Processor 588: field transfer
Processor 589: field transfer
Processor 590: field transfer
Processor 591: field transfer
Processor 592: field transfer
Processor 593: field transfer
Processor 594: field transfer
Processor 595: field transfer
Processor 596: field transfer
Processor 597: field transfer
Processor 598: field transfer
Processor 599: field transfer
Processor 600: field transfer
Processor 601: field transfer
Processor 602: field transfer
Processor 603: field transfer
Processor 604: field transfer
Processor 605: field transfer
Processor 606: field transfer
Processor 607: field transfer
Processor 608: field transfer
Processor 609: field transfer
Processor 610: field transfer
Processor 611: field transfer
Processor 612: field transfer
Processor 613: field transfer
Processor 614: field transfer
Processor 615: field transfer
Processor 616: field transfer
Processor 617: field transfer
Processor 618: field transfer
Processor 619: field transfer
Processor 620: field transfer
Processor 621: field transfer
Processor 622: field transfer
Processor 623: field transfer
Processor 624: field transfer
Processor 625: field transfer
Processor 626: field transfer
Processor 627: field transfer
Processor 628: field transfer
Processor 629: field transfer
Processor 630: field transfer
Processor 631: field transfer
Processor 632: field transfer
Processor 633: field transfer
Processor 634: field transfer
Processor 635: field transfer
Processor 636: field transfer
Processor 637: field transfer
Processor 638: field transfer
Processor 639: field transfer
Processor 640: field transfer
Processor 641: field transfer
Processor 642: field transfer
Processor 643: field transfer
Processor 644: field transfer
Processor 645: field transfer
Processor 646: field transfer
Processor 647: field transfer
Processor 648: field transfer
Processor 649: field transfer
Processor 650: field transfer
Processor 651: field transfer
Processor 652: field transfer
Processor 653: field transfer
Processor 654: field transfer
Processor 655: field transfer
Processor 656: field transfer
Processor 657: field transfer
Processor 658: field transfer
Processor 659: field transfer
Processor 660: field transfer
Processor 661: field transfer
Processor 662: field transfer
Processor 663: field transfer
Processor 664: field transfer
Processor 665: field transfer
Processor 666: field transfer
Processor 667: field transfer
Processor 668: field transfer
Processor 669: field transfer
Processor 670: field transfer
Processor 671: field transfer
Processor 672: field transfer
Processor 673: field transfer
Processor 674: field transfer
Processor 675: field transfer
Processor 676: field transfer
Processor 677: field transfer
Processor 678: field transfer
Processor 679: field transfer
Processor 680: field transfer
Processor 681: field transfer
Processor 682: field transfer
Processor 683: field transfer
Processor 684: field transfer
Processor 685: field transfer
Processor 686: field transfer
Processor 687: field transfer
Processor 688: field transfer
Processor 689: field transfer
Processor 690: field transfer
Processor 691: field transfer
Processor 692: field transfer
Processor 693: field transfer
Processor 694: field transfer
Processor 695: field transfer
Processor 696: field transfer
Processor 697: field transfer
Processor 698: field transfer
Processor 699: field transfer
Processor 700: field transfer
Processor 701: field transfer
Processor 702: field transfer
Processor 703: field transfer
Processor 704: field transfer
Processor 705: field transfer
Processor 706: field transfer
Processor 707: field transfer
Processor 708: field transfer
Processor 709: field transfer
Processor 710: field transfer
Processor 711: field transfer
Processor 712: field transfer
Processor 713: field transfer
Processor 714: field transfer
Processor 715: field transfer
Processor 716: field transfer
Processor 717: field transfer
Processor 718: field transfer
Processor 719: field transfer
Processor 720: field transfer
Processor 721: field transfer
Processor 722: field transfer
Processor 723: field transfer
Processor 724: field transfer
Processor 725: field transfer
Processor 726: field transfer
Processor 727: field transfer
Processor 728: field transfer
Processor 729: field transfer
Processor 730: field transfer
Processor 731: field transfer
Processor 732: field transfer
Processor 733: field transfer
Processor 734: field transfer
Processor 735: field transfer
Processor 736: field transfer
Processor 737: field transfer
Processor 738: field transfer
Processor 739: field transfer
Processor 740: field transfer
Processor 741: field transfer
Processor 742: field transfer
Processor 743: field transfer
Processor 744: field transfer
Processor 745: field transfer
Processor 746: field transfer
Processor 747: field transfer
Processor 748: field transfer
Processor 749: field transfer
Processor 750: field transfer
Processor 751: field transfer
Processor 752: field transfer
Processor 753: field transfer
Processor 754: field transfer
Processor 755: field transfer
Processor 756: field transfer
Processor 757: field transfer
Processor 758: field transfer
Processor 759: field transfer
Processor 760: field transfer
Processor 761: field transfer
Processor 762: field transfer
Processor 763: field transfer
Processor 764: field transfer
Processor 765: field transfer
Processor 766: field transfer
Processor 767: field transfer
Processor 768: field transfer
Processor 769: field transfer
Processor 770: field transfer
Processor 771: field transfer
Processor 772: field transfer
Processor 773: field transfer
Processor 774: field transfer
Processor 775: field transfer
Processor 776: field transfer
Processor 777: field transfer
Processor 778: field transfer
Processor 779: field transfer
Processor 780: field transfer
Processor 781: field transfer
Processor 782: field transfer
Processor 783: field transfer
Processor 784: field transfer
Processor 785: field transfer
Processor 786: field transfer
Processor 787: field transfer
Processor 788: field transfer
Processor 789: field transfer
Processor 790: field transfer
Processor 791: field transfer
Processor 792: field transfer
Processor 793: field transfer
Processor 794: field transfer
Processor 795: field transfer
Processor 796: field transfer
Processor 797: field transfer
Processor 798: field transfer
Processor 799: field transfer
Processor 800: field transfer
Processor 801: field transfer
Processor 802: field transfer
Processor 803: field transfer
Processor 804: field transfer
Processor 805: field transfer
Processor 806: field transfer
Processor 807: field transfer
Processor 808: field transfer
Processor 809: field transfer
Processor 810: field transfer
Processor 811: field transfer
Processor 812: field transfer
Processor 813: field transfer
Processor 814: field transfer
Processor 815: field transfer
Processor 816: field transfer
Processor 817: field transfer
Processor 818: field transfer
Processor 819: field transfer
Processor 820: field transfer
Processor 821: field transfer
Processor 822: field transfer
Processor 823: field transfer
Processor 824: field transfer
Processor 825: field transfer
Processor 826: field transfer
Processor 827: field transfer
Processor 828: field transfer
Processor 829: field transfer
Processor 830: field transfer
Processor 831: field transfer
Processor 832: field transfer
Processor 833: field transfer
Processor 834: field transfer
Processor 835: field transfer
Processor 836: field transfer
Processor 837: field transfer
Processor 838: field transfer
Processor 839: field transfer
Processor 840: field transfer
Processor 841: field transfer
Processor 842: field transfer
Processor 843: field transfer
Processor 844: field transfer
Processor 845: field transfer
Processor 846: field transfer
Processor 847: field transfer
Processor 848: field transfer
Processor 849: field transfer
Processor 850: field transfer
Processor 851: field transfer
Processor 852: field transfer
Processor 853: field transfer
Processor 854: field transfer
Processor 855: field transfer
Processor 856: field transfer
Processor 857: field transfer
Processor 858: field transfer
Processor 859: field transfer
Processor 860: field transfer
Processor 861: field transfer
Processor 862: field transfer
Processor 863: field transfer
Processor 864: field transfer
Processor 865: field transfer
Processor 866: field transfer
Processor 867: field transfer
Processor 868: field transfer
Processor 869: field transfer
Processor 870: field transfer
Processor 871: field transfer
Processor 872: field transfer
Processor 873: field transfer
Processor 874: field transfer
Processor 875: field transfer
Processor 876: field transfer
Processor 877: field transfer
Processor 878: field transfer
Processor 879: field transfer
Processor 880: field transfer
Processor 881: field transfer
Processor 882: field transfer
Processor 883: field transfer
Processor 884: field transfer
Processor 885: field transfer
Processor 886: field transfer
Processor 887: field transfer
Processor 888: field transfer
Processor 889: field transfer
Processor 890: field transfer
Processor 891: field transfer
Processor 892: field transfer
Processor 893: field transfer
Processor 894: field transfer
Processor 895: field transfer

End

