/*---------------------------------------------------------------------------*\
  =========                 |
  \\      /  F ield         | OpenFOAM: The Open Source CFD Toolbox
   \\    /   O peration     | Website:  https://openfoam.org
    \\  /    A nd           | Version:  7
     \\/     M anipulation  |
\*---------------------------------------------------------------------------*/
Build  : 7
Exec   : decomposePar
Date   : Oct 14 2020
Time   : 18:39:09
Host   : "cpu-p-281"
PID    : 95001
I/O    : uncollated
Case   : /rds/user/hpcbras1/hpc-work/csd3/cclake-roce-gcc9-ompi3-ucx/openfoam/Openfoam_Mbike_csd3_cclake_roce_gcc9_ompi3_ucx_3136_56
nProcs : 1
sigFpe : Enabling floating point exception trapping (FOAM_SIGFPE).
fileModificationChecking : Monitoring run-time modified files using timeStampMaster (fileModificationSkew 10)
allowSystemOperations : Allowing user-supplied system call operations

// * * * * * * * * * * * * * * * * * * * * * * * * * * * * * * * * * * * * * //
Create time



Decomposing mesh region0

Create mesh

Calculating distribution of cells
 Foam::decompositionMethod::New 
{
    numberOfSubdomains 3136;
    method          scotch;
    simpleCoeffs
    {
        n               ( 4 1 1 );
        delta           0.001;
    }
    hierarchicalCoeffs
    {
        n               ( 3 2 1 );
        delta           0.001;
        order           xyz;
    }
    manualCoeffs
    {
        dataFile        "cellDecomposition";
    }
}

Selecting decompositionMethod scotch

Finished decomposition in 0.09 s

Calculating original mesh data

Distributing cells to processors

Distributing faces to processors

Distributing points to processors

Constructing processor meshes

Processor 0
    Number of cells = 3
    Number of faces shared with processor 1 = 2
    Number of faces shared with processor 2 = 1
    Number of faces shared with processor 9 = 1
    Number of faces shared with processor 16 = 1
    Number of faces shared with processor 147 = 1
    Number of faces shared with processor 37 = 3
    Number of faces shared with processor 38 = 2
    Number of faces shared with processor 183 = 1
    Number of faces shared with processor 210 = 2
    Number of processor patches = 9
    Number of processor faces = 14
    Number of boundary faces = 0

Processor 1
    Number of cells = 3
    Number of faces shared with processor 0 = 2
    Number of faces shared with processor 2 = 3
    Number of faces shared with processor 4 = 1
    Number of faces shared with processor 5 = 1
    Number of faces shared with processor 10 = 1
    Number of faces shared with processor 16 = 1
    Number of faces shared with processor 17 = 1
    Number of faces shared with processor 150 = 1
    Number of faces shared with processor 37 = 1
    Number of faces shared with processor 209 = 1
    Number of faces shared with processor 210 = 1
    Number of processor patches = 11
    Number of processor faces = 14
    Number of boundary faces = 0

Processor 2
    Number of cells = 3
    Number of faces shared with processor 0 = 1
    Number of faces shared with processor 1 = 3
    Number of faces shared with processor 3 = 2
    Number of faces shared with processor 4 = 1
    Number of faces shared with processor 5 = 1
    Number of faces shared with processor 11 = 2
    Number of faces shared with processor 150 = 2
    Number of faces shared with processor 152 = 1
    Number of faces shared with processor 216 = 1
    Number of processor patches = 9
    Number of processor faces = 14
    Number of boundary faces = 0

Processor 3
    Number of cells = 3
    Number of faces shared with processor 2 = 2
    Number of faces shared with processor 4 = 2
    Number of faces shared with processor 5 = 2
    Number of faces shared with processor 6 = 1
    Number of faces shared with processor 151 = 1
    Number of faces shared with processor 152 = 1
    Number of faces shared with processor 216 = 2
    Number of faces shared with processor 618 = 1
    Number of faces shared with processor 621 = 2
    Number of processor patches = 9
    Number of processor faces = 14
    Number of boundary faces = 0

Processor 4
    Number of cells = 3
    Number of faces shared with processor 1 = 1
    Number of faces shared with processor 2 = 1
    Number of faces shared with processor 3 = 2
    Number of faces shared with processor 5 = 3
    Number of faces shared with processor 13 = 1
    Number of faces shared with processor 14 = 1
    Number of faces shared with processor 16 = 1
    Number of faces shared with processor 206 = 1
    Number of faces shared with processor 207 = 1
    Number of faces shared with processor 216 = 1
    Number of faces shared with processor 627 = 1
    Number of processor patches = 11
    Number of processor faces = 14
    Number of boundary faces = 0

Processor 5
    Number of cells = 4
    Number of faces shared with processor 1 = 1
    Number of faces shared with processor 2 = 1
    Number of faces shared with processor 3 = 2
    Number of faces shared with processor 4 = 3
    Number of faces shared with processor 6 = 1
    Number of faces shared with processor 7 = 3
    Number of faces shared with processor 14 = 2
    Number of faces shared with processor 17 = 1
    Number of faces shared with processor 618 = 1
    Number of faces shared with processor 627 = 1
    Number of processor patches = 10
    Number of processor faces = 16
    Number of boundary faces = 0

Processor 6
    Number of cells = 3
    Number of faces shared with processor 3 = 1
    Number of faces shared with processor 5 = 1
    Number of faces shared with processor 7 = 2
    Number of faces shared with processor 8 = 2
    Number of faces shared with processor 11 = 2
    Number of faces shared with processor 170 = 2
    Number of faces shared with processor 54 = 1
    Number of faces shared with processor 618 = 1
    Number of faces shared with processor 619 = 1
    Number of faces shared with processor 620 = 1
    Number of processor patches = 10
    Number of processor faces = 14
    Number of boundary faces = 0

Processor 7
    Number of cells = 3
    Number of faces shared with processor 5 = 3
    Number of faces shared with processor 6 = 2
    Number of faces shared with processor 8 = 3
    Number of faces shared with processor 10 = 1
    Number of faces shared with processor 11 = 1
    Number of faces shared with processor 19 = 2
    Number of faces shared with processor 22 = 1
    Number of faces shared with processor 631 = 1
    Number of processor patches = 8
    Number of processor faces = 14
    Number of boundary faces = 0

Processor 8
    Number of cells = 4
    Number of faces shared with processor 6 = 2
    Number of faces shared with processor 7 = 3
    Number of faces shared with processor 10 = 1
    Number of faces shared with processor 11 = 1
    Number of faces shared with processor 20 = 2
    Number of faces shared with processor 23 = 1
    Number of faces shared with processor 51 = 1
    Number of faces shared with processor 52 = 1
    Number of faces shared with processor 53 = 2
    Number of faces shared with processor 620 = 1
    Number of faces shared with processor 632 = 1
    Number of processor patches = 11
    Number of processor faces = 16
    Number of boundary faces = 0

Processor 9
    Number of cells = 3
    Number of faces shared with processor 0 = 1
    Number of faces shared with processor 10 = 1
    Number of faces shared with processor 11 = 2
    Number of faces shared with processor 165 = 2
    Number of faces shared with processor 42 = 3
    Number of faces shared with processor 44 = 1
    Number of faces shared with processor 46 = 1
    Number of faces shared with processor 176 = 1
    Number of faces shared with processor 49 = 1
    Number of faces shared with processor 80 = 1
    Number of processor patches = 10
    Number of processor faces = 14
    Number of boundary faces = 0

Processor 10
    Number of cells = 3
    Number of faces shared with processor 1 = 1
    Number of faces shared with processor 7 = 1
    Number of faces shared with processor 8 = 1
    Number of faces shared with processor 9 = 1
    Number of faces shared with processor 11 = 2
    Number of faces shared with processor 22 = 1
    Number of faces shared with processor 23 = 2
    Number of faces shared with processor 42 = 2
    Number of faces shared with processor 44 = 1
    Number of faces shared with processor 49 = 1
    Number of faces shared with processor 50 = 1
    Number of processor patches = 11
    Number of processor faces = 14
    Number of boundary faces = 0

Processor 11
    Number of cells = 4
    Number of faces shared with processor 2 = 2
    Number of faces shared with processor 6 = 2
    Number of faces shared with processor 7 = 1
    Number of faces shared with processor 8 = 1
    Number of faces shared with processor 9 = 2
    Number of faces shared with processor 10 = 2
    Number of faces shared with processor 168 = 3
    Number of faces shared with processor 169 = 1
    Number of faces shared with processor 49 = 1
    Number of faces shared with processor 54 = 1
    Number of processor patches = 10
    Number of processor faces = 16
    Number of boundary faces = 0

Processor 12
    Number of cells = 3
    Number of faces shared with processor 13 = 2
    Number of faces shared with processor 14 = 2
    Number of faces shared with processor 15 = 2
    Number of faces shared with processor 17 = 1
    Number of faces shared with processor 18 = 2
    Number of faces shared with processor 24 = 1
    Number of faces shared with processor 1180 = 1
    Number of faces shared with processor 1181 = 1
    Number of faces shared with processor 1186 = 1
    Number of faces shared with processor 205 = 1
    Number of processor patches = 10
    Number of processor faces = 14
    Number of boundary faces = 0

Processor 13
    Number of cells = 3
    Number of faces shared with processor 4 = 1
    Number of faces shared with processor 12 = 2
    Number of faces shared with processor 14 = 3
    Number of faces shared with processor 19 = 1
    Number of faces shared with processor 1180 = 1
    Number of faces shared with processor 1181 = 1
    Number of faces shared with processor 205 = 1
    Number of faces shared with processor 207 = 1
    Number of faces shared with processor 628 = 3
    Number of processor patches = 9
    Number of processor faces = 14
    Number of boundary faces = 0

Processor 14
    Number of cells = 3
    Number of faces shared with processor 4 = 1
    Number of faces shared with processor 5 = 2
    Number of faces shared with processor 12 = 2
    Number of faces shared with processor 13 = 3
    Number of faces shared with processor 16 = 1
    Number of faces shared with processor 17 = 1
    Number of faces shared with processor 19 = 2
    Number of faces shared with processor 205 = 1
    Number of faces shared with processor 627 = 1
    Number of processor patches = 9
    Number of processor faces = 14
    Number of boundary faces = 0

Processor 15
    Number of cells = 3
    Number of faces shared with processor 12 = 2
    Number of faces shared with processor 16 = 3
    Number of faces shared with processor 17 = 1
    Number of faces shared with processor 24 = 1
    Number of faces shared with processor 1176 = 2
    Number of faces shared with processor 28 = 2
    Number of faces shared with processor 199 = 2
    Number of faces shared with processor 201 = 1
    Number of processor patches = 8
    Number of processor faces = 14
    Number of boundary faces = 0

Processor 16
    Number of cells = 3
    Number of faces shared with processor 0 = 1
    Number of faces shared with processor 1 = 1
    Number of faces shared with processor 4 = 1
    Number of faces shared with processor 14 = 1
    Number of faces shared with processor 15 = 3
    Number of faces shared with processor 17 = 3
    Number of faces shared with processor 27 = 1
    Number of faces shared with processor 201 = 3
    Number of processor patches = 8
    Number of processor faces = 14
    Number of boundary faces = 0

Processor 17
    Number of cells = 4
    Number of faces shared with processor 1 = 1
    Number of faces shared with processor 5 = 1
    Number of faces shared with processor 12 = 1
    Number of faces shared with processor 14 = 1
    Number of faces shared with processor 15 = 1
    Number of faces shared with processor 16 = 3
    Number of faces shared with processor 21 = 1
    Number of faces shared with processor 22 = 3
    Number of faces shared with processor 24 = 1
    Number of faces shared with processor 29 = 1
    Number of faces shared with processor 36 = 1
    Number of faces shared with processor 37 = 1
    Number of processor patches = 12
    Number of processor faces = 16
    Number of boundary faces = 0

Processor 18
    Number of cells = 3
    Number of faces shared with processor 12 = 2
    Number of faces shared with processor 19 = 2
    Number of faces shared with processor 20 = 2
    Number of faces shared with processor 21 = 2
    Number of faces shared with processor 22 = 1
    Number of faces shared with processor 23 = 1
    Number of faces shared with processor 1187 = 3
    Number of faces shared with processor 61 = 1
    Number of processor patches = 8
    Number of processor faces = 14
    Number of boundary faces = 0

Processor 19
    Number of cells = 3
    Number of faces shared with processor 7 = 2
    Number of faces shared with processor 13 = 1
    Number of faces shared with processor 14 = 2
    Number of faces shared with processor 18 = 2
    Number of faces shared with processor 20 = 3
    Number of faces shared with processor 22 = 1
    Number of faces shared with processor 1182 = 1
    Number of faces shared with processor 630 = 2
    Number of processor patches = 8
    Number of processor faces = 14
    Number of boundary faces = 0

Processor 20
    Number of cells = 4
    Number of faces shared with processor 8 = 2
    Number of faces shared with processor 18 = 2
    Number of faces shared with processor 19 = 3
    Number of faces shared with processor 23 = 1
    Number of faces shared with processor 1182 = 1
    Number of faces shared with processor 1187 = 1
    Number of faces shared with processor 61 = 2
    Number of faces shared with processor 62 = 2
    Number of faces shared with processor 630 = 1
    Number of faces shared with processor 632 = 1
    Number of processor patches = 10
    Number of processor faces = 16
    Number of boundary faces = 0

Processor 21
    Number of cells = 3
    Number of faces shared with processor 17 = 1
    Number of faces shared with processor 18 = 2
    Number of faces shared with processor 22 = 2
    Number of faces shared with processor 23 = 2
    Number of faces shared with processor 24 = 1
    Number of faces shared with processor 25 = 1
    Number of faces shared with processor 26 = 2
    Number of faces shared with processor 1186 = 1
    Number of faces shared with processor 1203 = 1
    Number of faces shared with processor 64 = 1
    Number of processor patches = 10
    Number of processor faces = 14
    Number of boundary faces = 0

Processor 22
    Number of cells = 3
    Number of faces shared with processor 7 = 1
    Number of faces shared with processor 10 = 1
    Number of faces shared with processor 17 = 3
    Number of faces shared with processor 18 = 1
    Number of faces shared with processor 19 = 1
    Number of faces shared with processor 21 = 2
    Number of faces shared with processor 23 = 3
    Number of faces shared with processor 42 = 1
    Number of faces shared with processor 43 = 1
    Number of processor patches = 9
    Number of processor faces = 14
    Number of boundary faces = 0

Processor 23
    Number of cells = 4
    Number of faces shared with processor 8 = 1
    Number of faces shared with processor 10 = 2
    Number of faces shared with processor 18 = 1
    Number of faces shared with processor 20 = 1
    Number of faces shared with processor 21 = 2
    Number of faces shared with processor 22 = 3
    Number of faces shared with processor 26 = 1
    Number of faces shared with processor 44 = 1
    Number of faces shared with processor 51 = 1
    Number of faces shared with processor 65 = 1
    Number of faces shared with processor 66 = 2
    Number of processor patches = 11
    Number of processor faces = 16
    Number of boundary faces = 0

Processor 24
    Number of cells = 3
    Number of faces shared with processor 12 = 1
    Number of faces shared with processor 15 = 1
    Number of faces shared with processor 17 = 1
    Number of faces shared with processor 21 = 1
    Number of faces shared with processor 25 = 2
    Number of faces shared with processor 26 = 2
    Number of faces shared with processor 29 = 2
    Number of faces shared with processor 33 = 1
    Number of faces shared with processor 1186 = 1
    Number of faces shared with processor 35 = 1
    Number of faces shared with processor 1200 = 1
    Number of faces shared with processor 1205 = 1
    Number of faces shared with processor 76 = 1
    Number of processor patches = 13
    Number of processor faces = 16
    Number of boundary faces = 0

Processor 25
    Number of cells = 3
    Number of faces shared with processor 21 = 1
    Number of faces shared with processor 24 = 2
    Number of faces shared with processor 26 = 3
    Number of faces shared with processor 29 = 2
    Number of faces shared with processor 34 = 2
    Number of faces shared with processor 43 = 2
    Number of faces shared with processor 44 = 1
    Number of faces shared with processor 77 = 1
    Number of processor patches = 8
    Number of processor faces = 14
    Number of boundary faces = 0

Processor 26
    Number of cells = 3
    Number of faces shared with processor 21 = 2
    Number of faces shared with processor 23 = 1
    Number of faces shared with processor 24 = 2
    Number of faces shared with processor 25 = 3
    Number of faces shared with processor 29 = 1
    Number of faces shared with processor 44 = 1
    Number of faces shared with processor 1204 = 1
    Number of faces shared with processor 1205 = 1
    Number of faces shared with processor 76 = 2
    Number of processor patches = 9
    Number of processor faces = 14
    Number of boundary faces = 0

Processor 27
    Number of cells = 3
    Number of faces shared with processor 16 = 1
    Number of faces shared with processor 28 = 3
    Number of faces shared with processor 29 = 1
    Number of faces shared with processor 30 = 1
    Number of faces shared with processor 31 = 1
    Number of faces shared with processor 36 = 2
    Number of faces shared with processor 37 = 1
    Number of faces shared with processor 39 = 1
    Number of faces shared with processor 221 = 1
    Number of faces shared with processor 244 = 2
    Number of processor patches = 10
    Number of processor faces = 14
    Number of boundary faces = 0

Processor 28
    Number of cells = 3
    Number of faces shared with processor 15 = 2
    Number of faces shared with processor 27 = 3
    Number of faces shared with processor 29 = 3
    Number of faces shared with processor 30 = 1
    Number of faces shared with processor 1208 = 1
    Number of faces shared with processor 1209 = 1
    Number of faces shared with processor 220 = 1
    Number of faces shared with processor 221 = 1
    Number of faces shared with processor 222 = 1
    Number of processor patches = 9
    Number of processor faces = 14
    Number of boundary faces = 0

Processor 29
    Number of cells = 4
    Number of faces shared with processor 17 = 1
    Number of faces shared with processor 24 = 2
    Number of faces shared with processor 25 = 2
    Number of faces shared with processor 26 = 1
    Number of faces shared with processor 27 = 1
    Number of faces shared with processor 28 = 3
    Number of faces shared with processor 32 = 1
    Number of faces shared with processor 33 = 1
    Number of faces shared with processor 36 = 2
    Number of faces shared with processor 1208 = 1
    Number of faces shared with processor 1209 = 1
    Number of processor patches = 11
    Number of processor faces = 16
    Number of boundary faces = 0

Processor 30
    Number of cells = 3
    Number of faces shared with processor 27 = 1
    Number of faces shared with processor 28 = 1
    Number of faces shared with processor 31 = 3
    Number of faces shared with processor 32 = 1
    Number of faces shared with processor 33 = 2
    Number of faces shared with processor 1209 = 1
    Number of faces shared with processor 1210 = 1
    Number of faces shared with processor 228 = 3
    Number of processor patches = 8
    Number of processor faces = 13
    Number of boundary faces = 1

Processor 31
    Number of cells = 3
    Number of faces shared with processor 27 = 1
    Number of faces shared with processor 30 = 3
    Number of faces shared with processor 32 = 3
    Number of faces shared with processor 39 = 1
    Number of faces shared with processor 40 = 1
    Number of faces shared with processor 228 = 1
    Number of faces shared with processor 233 = 1
    Number of faces shared with processor 234 = 1
    Number of processor patches = 8
    Number of processor faces = 12
    Number of boundary faces = 2

Processor 32
    Number of cells = 4
    Number of faces shared with processor 29 = 1
    Number of faces shared with processor 30 = 1
    Number of faces shared with processor 31 = 3
    Number of faces shared with processor 33 = 2
    Number of faces shared with processor 34 = 1
    Number of faces shared with processor 35 = 1
    Number of faces shared with processor 36 = 1
    Number of faces shared with processor 41 = 2
    Number of faces shared with processor 47 = 2
    Number of processor patches = 9
    Number of processor faces = 14
    Number of boundary faces = 2

Processor 33
    Number of cells = 3
    Number of faces shared with processor 24 = 1
    Number of faces shared with processor 29 = 1
    Number of faces shared with processor 30 = 2
    Number of faces shared with processor 32 = 2
    Number of faces shared with processor 34 = 1
    Number of faces shared with processor 35 = 3
    Number of faces shared with processor 1200 = 1
    Number of faces shared with processor 1211 = 2
    Number of processor patches = 8
    Number of processor faces = 13
    Number of boundary faces = 1

Processor 34
    Number of cells = 3
    Number of faces shared with processor 25 = 2
    Number of faces shared with processor 32 = 1
    Number of faces shared with processor 33 = 1
    Number of faces shared with processor 35 = 4
    Number of faces shared with processor 47 = 1
    Number of faces shared with processor 48 = 2
    Number of faces shared with processor 74 = 1
    Number of faces shared with processor 75 = 1
    Number of processor patches = 8
    Number of processor faces = 13
    Number of boundary faces = 1

Processor 35
    Number of cells = 4
    Number of faces shared with processor 24 = 1
    Number of faces shared with processor 32 = 1
    Number of faces shared with processor 33 = 3
    Number of faces shared with processor 34 = 4
    Number of faces shared with processor 47 = 1
    Number of faces shared with processor 1200 = 1
    Number of faces shared with processor 1202 = 2
    Number of faces shared with processor 74 = 2
    Number of processor patches = 8
    Number of processor faces = 15
    Number of boundary faces = 3

Processor 36
    Number of cells = 3
    Number of faces shared with processor 17 = 1
    Number of faces shared with processor 27 = 2
    Number of faces shared with processor 29 = 2
    Number of faces shared with processor 32 = 1
    Number of faces shared with processor 37 = 2
    Number of faces shared with processor 38 = 1
    Number of faces shared with processor 39 = 1
    Number of faces shared with processor 41 = 1
    Number of faces shared with processor 43 = 3
    Number of processor patches = 9
    Number of processor faces = 14
    Number of boundary faces = 0

Processor 37
    Number of cells = 3
    Number of faces shared with processor 0 = 3
    Number of faces shared with processor 1 = 1
    Number of faces shared with processor 17 = 1
    Number of faces shared with processor 27 = 1
    Number of faces shared with processor 36 = 2
    Number of faces shared with processor 38 = 2
    Number of faces shared with processor 39 = 1
    Number of faces shared with processor 42 = 2
    Number of faces shared with processor 244 = 1
    Number of processor patches = 9
    Number of processor faces = 14
    Number of boundary faces = 0

Processor 38
    Number of cells = 3
    Number of faces shared with processor 0 = 2
    Number of faces shared with processor 36 = 1
    Number of faces shared with processor 37 = 2
    Number of faces shared with processor 39 = 2
    Number of faces shared with processor 41 = 1
    Number of faces shared with processor 42 = 1
    Number of faces shared with processor 45 = 1
    Number of faces shared with processor 183 = 2
    Number of faces shared with processor 186 = 1
    Number of faces shared with processor 208 = 1
    Number of processor patches = 10
    Number of processor faces = 14
    Number of boundary faces = 0

Processor 39
    Number of cells = 3
    Number of faces shared with processor 27 = 1
    Number of faces shared with processor 31 = 1
    Number of faces shared with processor 36 = 1
    Number of faces shared with processor 37 = 1
    Number of faces shared with processor 38 = 2
    Number of faces shared with processor 40 = 3
    Number of faces shared with processor 41 = 1
    Number of faces shared with processor 184 = 1
    Number of faces shared with processor 234 = 1
    Number of faces shared with processor 241 = 1
    Number of faces shared with processor 244 = 1
    Number of processor patches = 11
    Number of processor faces = 14
    Number of boundary faces = 0

Processor 40
    Number of cells = 3
    Number of faces shared with processor 31 = 1
    Number of faces shared with processor 39 = 3
    Number of faces shared with processor 41 = 3
    Number of faces shared with processor 188 = 2
    Number of faces shared with processor 232 = 2
    Number of faces shared with processor 241 = 1
    Number of processor patches = 6
    Number of processor faces = 12
    Number of boundary faces = 2

Processor 41
    Number of cells = 4
    Number of faces shared with processor 32 = 2
    Number of faces shared with processor 36 = 1
    Number of faces shared with processor 38 = 1
    Number of faces shared with processor 39 = 1
    Number of faces shared with processor 40 = 3
    Number of faces shared with processor 45 = 2
    Number of faces shared with processor 46 = 1
    Number of faces shared with processor 47 = 1
    Number of faces shared with processor 188 = 2
    Number of processor patches = 9
    Number of processor faces = 14
    Number of boundary faces = 2

Processor 42
    Number of cells = 3
    Number of faces shared with processor 9 = 3
    Number of faces shared with processor 10 = 2
    Number of faces shared with processor 22 = 1
    Number of faces shared with processor 37 = 2
    Number of faces shared with processor 38 = 1
    Number of faces shared with processor 43 = 2
    Number of faces shared with processor 44 = 1
    Number of faces shared with processor 45 = 1
    Number of faces shared with processor 176 = 1
    Number of processor patches = 9
    Number of processor faces = 14
    Number of boundary faces = 0

Processor 43
    Number of cells = 3
    Number of faces shared with processor 22 = 1
    Number of faces shared with processor 25 = 2
    Number of faces shared with processor 36 = 3
    Number of faces shared with processor 42 = 2
    Number of faces shared with processor 44 = 3
    Number of faces shared with processor 45 = 2
    Number of faces shared with processor 47 = 1
    Number of processor patches = 7
    Number of processor faces = 14
    Number of boundary faces = 0

Processor 44
    Number of cells = 4
    Number of faces shared with processor 9 = 1
    Number of faces shared with processor 10 = 1
    Number of faces shared with processor 23 = 1
    Number of faces shared with processor 25 = 1
    Number of faces shared with processor 26 = 1
    Number of faces shared with processor 42 = 1
    Number of faces shared with processor 43 = 3
    Number of faces shared with processor 46 = 1
    Number of faces shared with processor 48 = 2
    Number of faces shared with processor 77 = 2
    Number of faces shared with processor 80 = 2
    Number of processor patches = 11
    Number of processor faces = 16
    Number of boundary faces = 0

Processor 45
    Number of cells = 3
    Number of faces shared with processor 38 = 1
    Number of faces shared with processor 41 = 2
    Number of faces shared with processor 42 = 1
    Number of faces shared with processor 43 = 2
    Number of faces shared with processor 46 = 3
    Number of faces shared with processor 175 = 1
    Number of faces shared with processor 47 = 2
    Number of faces shared with processor 48 = 1
    Number of faces shared with processor 181 = 1
    Number of processor patches = 9
    Number of processor faces = 14
    Number of boundary faces = 0

Processor 46
    Number of cells = 4
    Number of faces shared with processor 9 = 1
    Number of faces shared with processor 41 = 1
    Number of faces shared with processor 44 = 1
    Number of faces shared with processor 45 = 3
    Number of faces shared with processor 175 = 1
    Number of faces shared with processor 47 = 1
    Number of faces shared with processor 48 = 2
    Number of faces shared with processor 181 = 1
    Number of faces shared with processor 182 = 2
    Number of faces shared with processor 79 = 2
    Number of faces shared with processor 82 = 1
    Number of processor patches = 11
    Number of processor faces = 16
    Number of boundary faces = 2

Processor 47
    Number of cells = 3
    Number of faces shared with processor 32 = 2
    Number of faces shared with processor 34 = 1
    Number of faces shared with processor 35 = 1
    Number of faces shared with processor 41 = 1
    Number of faces shared with processor 43 = 1
    Number of faces shared with processor 45 = 2
    Number of faces shared with processor 46 = 1
    Number of faces shared with processor 48 = 3
    Number of processor patches = 8
    Number of processor faces = 12
    Number of boundary faces = 2

Processor 48
    Number of cells = 4
    Number of faces shared with processor 34 = 2
    Number of faces shared with processor 44 = 2
    Number of faces shared with processor 45 = 1
    Number of faces shared with processor 46 = 2
    Number of faces shared with processor 47 = 3
    Number of faces shared with processor 82 = 1
    Number of faces shared with processor 83 = 3
    Number of processor patches = 7
    Number of processor faces = 14
    Number of boundary faces = 2

Processor 49
    Number of cells = 3
    Number of faces shared with processor 9 = 1
    Number of faces shared with processor 10 = 1
    Number of faces shared with processor 11 = 1
    Number of faces shared with processor 50 = 2
    Number of faces shared with processor 54 = 1
    Number of faces shared with processor 58 = 2
    Number of faces shared with processor 66 = 1
    Number of faces shared with processor 80 = 2
    Number of faces shared with processor 89 = 1
    Number of faces shared with processor 101 = 2
    Number of processor patches = 10
    Number of processor faces = 14
    Number of boundary faces = 0

Processor 50
    Number of cells = 3
    Number of faces shared with processor 10 = 1
    Number of faces shared with processor 49 = 2
    Number of faces shared with processor 51 = 3
    Number of faces shared with processor 53 = 2
    Number of faces shared with processor 58 = 1
    Number of faces shared with processor 59 = 2
    Number of faces shared with processor 65 = 1
    Number of faces shared with processor 66 = 1
    Number of faces shared with processor 89 = 1
    Number of processor patches = 9
    Number of processor faces = 14
    Number of boundary faces = 0

Processor 51
    Number of cells = 3
    Number of faces shared with processor 8 = 1
    Number of faces shared with processor 23 = 1
    Number of faces shared with processor 50 = 3
    Number of faces shared with processor 52 = 2
    Number of faces shared with processor 53 = 2
    Number of faces shared with processor 56 = 1
    Number of faces shared with processor 61 = 1
    Number of faces shared with processor 63 = 1
    Number of faces shared with processor 65 = 1
    Number of faces shared with processor 66 = 1
    Number of processor patches = 10
    Number of processor faces = 14
    Number of boundary faces = 0

Processor 52
    Number of cells = 3
    Number of faces shared with processor 8 = 1
    Number of faces shared with processor 667 = 1
    Number of faces shared with processor 676 = 2
    Number of faces shared with processor 51 = 2
    Number of faces shared with processor 53 = 3
    Number of faces shared with processor 54 = 1
    Number of faces shared with processor 55 = 1
    Number of faces shared with processor 56 = 1
    Number of faces shared with processor 62 = 1
    Number of faces shared with processor 63 = 1
    Number of processor patches = 10
    Number of processor faces = 14
    Number of boundary faces = 0

Processor 53
    Number of cells = 3
    Number of faces shared with processor 8 = 2
    Number of faces shared with processor 670 = 1
    Number of faces shared with processor 50 = 2
    Number of faces shared with processor 51 = 2
    Number of faces shared with processor 52 = 3
    Number of faces shared with processor 54 = 3
    Number of faces shared with processor 56 = 1
    Number of processor patches = 7
    Number of processor faces = 14
    Number of boundary faces = 0

Processor 54
    Number of cells = 4
    Number of faces shared with processor 6 = 1
    Number of faces shared with processor 11 = 1
    Number of faces shared with processor 667 = 1
    Number of faces shared with processor 670 = 1
    Number of faces shared with processor 49 = 1
    Number of faces shared with processor 52 = 1
    Number of faces shared with processor 53 = 3
    Number of faces shared with processor 55 = 1
    Number of faces shared with processor 58 = 1
    Number of faces shared with processor 60 = 1
    Number of faces shared with processor 104 = 2
    Number of faces shared with processor 107 = 2
    Number of processor patches = 12
    Number of processor faces = 16
    Number of boundary faces = 0

Processor 55
    Number of cells = 3
    Number of faces shared with processor 667 = 1
    Number of faces shared with processor 668 = 1
    Number of faces shared with processor 669 = 1
    Number of faces shared with processor 52 = 1
    Number of faces shared with processor 54 = 1
    Number of faces shared with processor 56 = 2
    Number of faces shared with processor 57 = 2
    Number of faces shared with processor 60 = 2
    Number of faces shared with processor 107 = 1
    Number of faces shared with processor 109 = 1
    Number of processor patches = 10
    Number of processor faces = 13
    Number of boundary faces = 1

Processor 56
    Number of cells = 3
    Number of faces shared with processor 680 = 1
    Number of faces shared with processor 51 = 1
    Number of faces shared with processor 52 = 1
    Number of faces shared with processor 53 = 1
    Number of faces shared with processor 55 = 2
    Number of faces shared with processor 57 = 3
    Number of faces shared with processor 59 = 2
    Number of faces shared with processor 60 = 1
    Number of faces shared with processor 68 = 2
    Number of processor patches = 9
    Number of processor faces = 14
    Number of boundary faces = 0

Processor 57
    Number of cells = 4
    Number of faces shared with processor 669 = 1
    Number of faces shared with processor 681 = 1
    Number of faces shared with processor 55 = 2
    Number of faces shared with processor 56 = 3
    Number of faces shared with processor 59 = 1
    Number of faces shared with processor 60 = 1
    Number of faces shared with processor 69 = 2
    Number of faces shared with processor 70 = 1
    Number of processor patches = 8
    Number of processor faces = 12
    Number of boundary faces = 4

Processor 58
    Number of cells = 3
    Number of faces shared with processor 143 = 1
    Number of faces shared with processor 49 = 2
    Number of faces shared with processor 50 = 1
    Number of faces shared with processor 54 = 1
    Number of faces shared with processor 60 = 2
    Number of faces shared with processor 81 = 1
    Number of faces shared with processor 88 = 1
    Number of faces shared with processor 89 = 3
    Number of faces shared with processor 98 = 1
    Number of faces shared with processor 99 = 1
    Number of processor patches = 10
    Number of processor faces = 14
    Number of boundary faces = 0

Processor 59
    Number of cells = 3
    Number of faces shared with processor 50 = 2
    Number of faces shared with processor 56 = 2
    Number of faces shared with processor 57 = 1
    Number of faces shared with processor 60 = 2
    Number of faces shared with processor 67 = 1
    Number of faces shared with processor 70 = 3
    Number of faces shared with processor 71 = 1
    Number of faces shared with processor 89 = 1
    Number of processor patches = 8
    Number of processor faces = 13
    Number of boundary faces = 1

Processor 60
    Number of cells = 4
    Number of faces shared with processor 54 = 1
    Number of faces shared with processor 55 = 2
    Number of faces shared with processor 56 = 1
    Number of faces shared with processor 57 = 1
    Number of faces shared with processor 58 = 2
    Number of faces shared with processor 59 = 2
    Number of faces shared with processor 88 = 1
    Number of faces shared with processor 98 = 1
    Number of faces shared with processor 100 = 1
    Number of faces shared with processor 108 = 1
    Number of faces shared with processor 109 = 1
    Number of processor patches = 11
    Number of processor faces = 14
    Number of boundary faces = 2

Processor 61
    Number of cells = 3
    Number of faces shared with processor 18 = 1
    Number of faces shared with processor 20 = 2
    Number of faces shared with processor 51 = 1
    Number of faces shared with processor 62 = 2
    Number of faces shared with processor 63 = 2
    Number of faces shared with processor 64 = 1
    Number of faces shared with processor 65 = 3
    Number of faces shared with processor 1245 = 2
    Number of processor patches = 8
    Number of processor faces = 14
    Number of boundary faces = 0

Processor 62
    Number of cells = 3
    Number of faces shared with processor 20 = 2
    Number of faces shared with processor 676 = 1
    Number of faces shared with processor 677 = 1
    Number of faces shared with processor 678 = 1
    Number of faces shared with processor 52 = 1
    Number of faces shared with processor 61 = 2
    Number of faces shared with processor 63 = 3
    Number of faces shared with processor 68 = 1
    Number of faces shared with processor 1246 = 2
    Number of processor patches = 9
    Number of processor faces = 14
    Number of boundary faces = 0

Processor 63
    Number of cells = 3
    Number of faces shared with processor 678 = 1
    Number of faces shared with processor 51 = 1
    Number of faces shared with processor 52 = 1
    Number of faces shared with processor 61 = 2
    Number of faces shared with processor 62 = 3
    Number of faces shared with processor 65 = 2
    Number of faces shared with processor 67 = 1
    Number of faces shared with processor 68 = 2
    Number of faces shared with processor 1245 = 1
    Number of processor patches = 9
    Number of processor faces = 14
    Number of boundary faces = 0

Processor 64
    Number of cells = 3
    Number of faces shared with processor 21 = 1
    Number of faces shared with processor 61 = 1
    Number of faces shared with processor 65 = 1
    Number of faces shared with processor 66 = 2
    Number of faces shared with processor 71 = 1
    Number of faces shared with processor 73 = 1
    Number of faces shared with processor 76 = 2
    Number of faces shared with processor 78 = 1
    Number of faces shared with processor 1243 = 2
    Number of faces shared with processor 95 = 1
    Number of faces shared with processor 1269 = 1
    Number of processor patches = 11
    Number of processor faces = 14
    Number of boundary faces = 0

Processor 65
    Number of cells = 3
    Number of faces shared with processor 23 = 1
    Number of faces shared with processor 50 = 1
    Number of faces shared with processor 51 = 1
    Number of faces shared with processor 61 = 3
    Number of faces shared with processor 63 = 2
    Number of faces shared with processor 64 = 1
    Number of faces shared with processor 66 = 2
    Number of faces shared with processor 67 = 2
    Number of faces shared with processor 1245 = 1
    Number of processor patches = 9
    Number of processor faces = 14
    Number of boundary faces = 0

Processor 66
    Number of cells = 4
    Number of faces shared with processor 23 = 2
    Number of faces shared with processor 49 = 1
    Number of faces shared with processor 50 = 1
    Number of faces shared with processor 51 = 1
    Number of faces shared with processor 64 = 2
    Number of faces shared with processor 65 = 2
    Number of faces shared with processor 71 = 2
    Number of faces shared with processor 76 = 1
    Number of faces shared with processor 77 = 1
    Number of faces shared with processor 78 = 2
    Number of faces shared with processor 89 = 1
    Number of processor patches = 11
    Number of processor faces = 16
    Number of boundary faces = 0

Processor 67
    Number of cells = 3
    Number of faces shared with processor 59 = 1
    Number of faces shared with processor 63 = 1
    Number of faces shared with processor 65 = 2
    Number of faces shared with processor 68 = 3
    Number of faces shared with processor 69 = 1
    Number of faces shared with processor 71 = 2
    Number of faces shared with processor 72 = 2
    Number of faces shared with processor 1226 = 2
    Number of processor patches = 8
    Number of processor faces = 14
    Number of boundary faces = 0

Processor 68
    Number of cells = 3
    Number of faces shared with processor 680 = 1
    Number of faces shared with processor 685 = 1
    Number of faces shared with processor 56 = 2
    Number of faces shared with processor 62 = 1
    Number of faces shared with processor 63 = 2
    Number of faces shared with processor 67 = 3
    Number of faces shared with processor 69 = 3
    Number of faces shared with processor 1228 = 1
    Number of processor patches = 8
    Number of processor faces = 14
    Number of boundary faces = 0

Processor 69
    Number of cells = 4
    Number of faces shared with processor 681 = 1
    Number of faces shared with processor 685 = 1
    Number of faces shared with processor 57 = 2
    Number of faces shared with processor 67 = 1
    Number of faces shared with processor 68 = 3
    Number of faces shared with processor 72 = 2
    Number of faces shared with processor 1226 = 1
    Number of faces shared with processor 1228 = 1
    Number of processor patches = 8
    Number of processor faces = 12
    Number of boundary faces = 4

Processor 70
    Number of cells = 3
    Number of faces shared with processor 57 = 1
    Number of faces shared with processor 59 = 3
    Number of faces shared with processor 71 = 1
    Number of faces shared with processor 72 = 2
    Number of faces shared with processor 88 = 1
    Number of faces shared with processor 89 = 1
    Number of faces shared with processor 90 = 1
    Number of faces shared with processor 96 = 1
    Number of processor patches = 8
    Number of processor faces = 11
    Number of boundary faces = 3

Processor 71
    Number of cells = 3
    Number of faces shared with processor 59 = 1
    Number of faces shared with processor 64 = 1
    Number of faces shared with processor 66 = 2
    Number of faces shared with processor 67 = 2
    Number of faces shared with processor 70 = 1
    Number of faces shared with processor 72 = 2
    Number of faces shared with processor 89 = 1
    Number of faces shared with processor 1243 = 1
    Number of faces shared with processor 94 = 1
    Number of faces shared with processor 95 = 1
    Number of faces shared with processor 96 = 1
    Number of processor patches = 11
    Number of processor faces = 14
    Number of boundary faces = 0

Processor 72
    Number of cells = 4
    Number of faces shared with processor 67 = 2
    Number of faces shared with processor 69 = 2
    Number of faces shared with processor 70 = 2
    Number of faces shared with processor 71 = 2
    Number of faces shared with processor 1225 = 1
    Number of faces shared with processor 1227 = 1
    Number of faces shared with processor 95 = 1
    Number of faces shared with processor 96 = 1
    Number of processor patches = 8
    Number of processor faces = 12
    Number of boundary faces = 4

Processor 73
    Number of cells = 3
    Number of faces shared with processor 64 = 1
    Number of faces shared with processor 74 = 2
    Number of faces shared with processor 75 = 2
    Number of faces shared with processor 76 = 1
    Number of faces shared with processor 78 = 1
    Number of faces shared with processor 92 = 1
    Number of faces shared with processor 93 = 1
    Number of faces shared with processor 95 = 1
    Number of faces shared with processor 1269 = 1
    Number of faces shared with processor 1273 = 2
    Number of processor patches = 10
    Number of processor faces = 13
    Number of boundary faces = 1

Processor 74
    Number of cells = 3
    Number of faces shared with processor 34 = 1
    Number of faces shared with processor 35 = 2
    Number of faces shared with processor 73 = 2
    Number of faces shared with processor 75 = 3
    Number of faces shared with processor 76 = 1
    Number of faces shared with processor 77 = 1
    Number of faces shared with processor 83 = 1
    Number of faces shared with processor 1272 = 2
    Number of processor patches = 8
    Number of processor faces = 13
    Number of boundary faces = 1

Processor 75
    Number of cells = 3
    Number of faces shared with processor 34 = 1
    Number of faces shared with processor 73 = 2
    Number of faces shared with processor 74 = 3
    Number of faces shared with processor 78 = 1
    Number of faces shared with processor 83 = 1
    Number of faces shared with processor 84 = 2
    Number of faces shared with processor 92 = 1
    Number of faces shared with processor 93 = 1
    Number of processor patches = 8
    Number of processor faces = 12
    Number of boundary faces = 2

Processor 76
    Number of cells = 3
    Number of faces shared with processor 24 = 1
    Number of faces shared with processor 26 = 2
    Number of faces shared with processor 64 = 2
    Number of faces shared with processor 66 = 1
    Number of faces shared with processor 73 = 1
    Number of faces shared with processor 74 = 1
    Number of faces shared with processor 77 = 3
    Number of faces shared with processor 78 = 1
    Number of faces shared with processor 1269 = 2
    Number of processor patches = 9
    Number of processor faces = 14
    Number of boundary faces = 0

Processor 77
    Number of cells = 3
    Number of faces shared with processor 25 = 1
    Number of faces shared with processor 44 = 2
    Number of faces shared with processor 66 = 1
    Number of faces shared with processor 74 = 1
    Number of faces shared with processor 76 = 3
    Number of faces shared with processor 78 = 3
    Number of faces shared with processor 80 = 2
    Number of faces shared with processor 83 = 1
    Number of processor patches = 8
    Number of processor faces = 14
    Number of boundary faces = 0

Processor 78
    Number of cells = 4
    Number of faces shared with processor 64 = 1
    Number of faces shared with processor 66 = 2
    Number of faces shared with processor 73 = 1
    Number of faces shared with processor 75 = 1
    Number of faces shared with processor 76 = 1
    Number of faces shared with processor 77 = 3
    Number of faces shared with processor 81 = 2
    Number of faces shared with processor 84 = 1
    Number of faces shared with processor 94 = 2
    Number of faces shared with processor 96 = 1
    Number of faces shared with processor 97 = 1
    Number of processor patches = 11
    Number of processor faces = 16
    Number of boundary faces = 0

Processor 79
    Number of cells = 3
    Number of faces shared with processor 144 = 3
    Number of faces shared with processor 46 = 2
    Number of faces shared with processor 80 = 2
    Number of faces shared with processor 81 = 2
    Number of faces shared with processor 82 = 2
    Number of faces shared with processor 83 = 1
    Number of faces shared with processor 84 = 1
    Number of faces shared with processor 85 = 1
    Number of processor patches = 8
    Number of processor faces = 14
    Number of boundary faces = 0

Processor 80
    Number of cells = 3
    Number of faces shared with processor 9 = 1
    Number of faces shared with processor 143 = 1
    Number of faces shared with processor 44 = 2
    Number of faces shared with processor 49 = 2
    Number of faces shared with processor 77 = 2
    Number of faces shared with processor 79 = 2
    Number of faces shared with processor 81 = 3
    Number of faces shared with processor 83 = 1
    Number of processor patches = 8
    Number of processor faces = 14
    Number of boundary faces = 0

Processor 81
    Number of cells = 4
    Number of faces shared with processor 143 = 1
    Number of faces shared with processor 144 = 1
    Number of faces shared with processor 58 = 1
    Number of faces shared with processor 78 = 2
    Number of faces shared with processor 79 = 2
    Number of faces shared with processor 80 = 3
    Number of faces shared with processor 84 = 1
    Number of faces shared with processor 85 = 1
    Number of faces shared with processor 89 = 2
    Number of faces shared with processor 90 = 2
    Number of processor patches = 10
    Number of processor faces = 16
    Number of boundary faces = 0

Processor 82
    Number of cells = 3
    Number of faces shared with processor 140 = 2
    Number of faces shared with processor 46 = 1
    Number of faces shared with processor 48 = 1
    Number of faces shared with processor 79 = 2
    Number of faces shared with processor 83 = 2
    Number of faces shared with processor 84 = 2
    Number of faces shared with processor 85 = 1
    Number of processor patches = 7
    Number of processor faces = 11
    Number of boundary faces = 3

Processor 83
    Number of cells = 3
    Number of faces shared with processor 48 = 3
    Number of faces shared with processor 74 = 1
    Number of faces shared with processor 75 = 1
    Number of faces shared with processor 77 = 1
    Number of faces shared with processor 79 = 1
    Number of faces shared with processor 80 = 1
    Number of faces shared with processor 82 = 2
    Number of faces shared with processor 84 = 3
    Number of processor patches = 8
    Number of processor faces = 13
    Number of boundary faces = 1

Processor 84
    Number of cells = 4
    Number of faces shared with processor 75 = 2
    Number of faces shared with processor 78 = 1
    Number of faces shared with processor 79 = 1
    Number of faces shared with processor 81 = 1
    Number of faces shared with processor 82 = 2
    Number of faces shared with processor 83 = 3
    Number of faces shared with processor 87 = 2
    Number of faces shared with processor 91 = 1
    Number of faces shared with processor 97 = 1
    Number of processor patches = 9
    Number of processor faces = 14
    Number of boundary faces = 2

Processor 85
    Number of cells = 3
    Number of faces shared with processor 128 = 2
    Number of faces shared with processor 131 = 1
    Number of faces shared with processor 79 = 1
    Number of faces shared with processor 81 = 1
    Number of faces shared with processor 82 = 1
    Number of faces shared with processor 86 = 2
    Number of faces shared with processor 87 = 2
    Number of faces shared with processor 88 = 1
    Number of faces shared with processor 89 = 1
    Number of faces shared with processor 90 = 1
    Number of processor patches = 10
    Number of processor faces = 13
    Number of boundary faces = 1

Processor 86
    Number of cells = 3
    Number of faces shared with processor 128 = 1
    Number of faces shared with processor 131 = 1
    Number of faces shared with processor 85 = 2
    Number of faces shared with processor 87 = 3
    Number of faces shared with processor 88 = 1
    Number of faces shared with processor 90 = 1
    Number of faces shared with processor 97 = 1
    Number of processor patches = 7
    Number of processor faces = 10
    Number of boundary faces = 4

Processor 87
    Number of cells = 3
    Number of faces shared with processor 84 = 2
    Number of faces shared with processor 85 = 2
    Number of faces shared with processor 86 = 3
    Number of faces shared with processor 90 = 1
    Number of faces shared with processor 91 = 2
    Number of faces shared with processor 97 = 1
    Number of processor patches = 6
    Number of processor faces = 11
    Number of boundary faces = 3

Processor 88
    Number of cells = 3
    Number of faces shared with processor 130 = 2
    Number of faces shared with processor 58 = 1
    Number of faces shared with processor 60 = 1
    Number of faces shared with processor 70 = 1
    Number of faces shared with processor 85 = 1
    Number of faces shared with processor 86 = 1
    Number of faces shared with processor 89 = 1
    Number of faces shared with processor 90 = 2
    Number of faces shared with processor 99 = 1
    Number of processor patches = 9
    Number of processor faces = 11
    Number of boundary faces = 3

Processor 89
    Number of cells = 3
    Number of faces shared with processor 129 = 1
    Number of faces shared with processor 49 = 1
    Number of faces shared with processor 50 = 1
    Number of faces shared with processor 58 = 3
    Number of faces shared with processor 59 = 1
    Number of faces shared with processor 66 = 1
    Number of faces shared with processor 70 = 1
    Number of faces shared with processor 71 = 1
    Number of faces shared with processor 81 = 2
    Number of faces shared with processor 85 = 1
    Number of faces shared with processor 88 = 1
    Number of faces shared with processor 90 = 2
    Number of processor patches = 12
    Number of processor faces = 16
    Number of boundary faces = 0

Processor 90
    Number of cells = 4
    Number of faces shared with processor 70 = 1
    Number of faces shared with processor 81 = 2
    Number of faces shared with processor 85 = 1
    Number of faces shared with processor 86 = 1
    Number of faces shared with processor 87 = 1
    Number of faces shared with processor 88 = 2
    Number of faces shared with processor 89 = 2
    Number of faces shared with processor 96 = 2
    Number of faces shared with processor 97 = 2
    Number of processor patches = 9
    Number of processor faces = 14
    Number of boundary faces = 2

Processor 91
    Number of cells = 3
    Number of faces shared with processor 84 = 1
    Number of faces shared with processor 87 = 2
    Number of faces shared with processor 92 = 3
    Number of faces shared with processor 93 = 1
    Number of faces shared with processor 97 = 2
    Number of processor patches = 5
    Number of processor faces = 9
    Number of boundary faces = 5

Processor 92
    Number of cells = 3
    Number of faces shared with processor 73 = 1
    Number of faces shared with processor 75 = 1
    Number of faces shared with processor 91 = 3
    Number of faces shared with processor 93 = 3
    Number of faces shared with processor 1251 = 2
    Number of processor patches = 5
    Number of processor faces = 10
    Number of boundary faces = 4

Processor 93
    Number of cells = 4
    Number of faces shared with processor 73 = 1
    Number of faces shared with processor 75 = 1
    Number of faces shared with processor 91 = 1
    Number of faces shared with processor 92 = 3
    Number of faces shared with processor 94 = 2
    Number of faces shared with processor 95 = 2
    Number of faces shared with processor 97 = 2
    Number of faces shared with processor 1249 = 2
    Number of processor patches = 8
    Number of processor faces = 14
    Number of boundary faces = 2

Processor 94
    Number of cells = 3
    Number of faces shared with processor 71 = 1
    Number of faces shared with processor 78 = 2
    Number of faces shared with processor 93 = 2
    Number of faces shared with processor 95 = 3
    Number of faces shared with processor 96 = 3
    Number of faces shared with processor 97 = 2
    Number of processor patches = 6
    Number of processor faces = 13
    Number of boundary faces = 1

Processor 95
    Number of cells = 4
    Number of faces shared with processor 64 = 1
    Number of faces shared with processor 71 = 1
    Number of faces shared with processor 72 = 1
    Number of faces shared with processor 1225 = 1
    Number of faces shared with processor 73 = 1
    Number of faces shared with processor 93 = 2
    Number of faces shared with processor 94 = 3
    Number of faces shared with processor 96 = 1
    Number of faces shared with processor 1249 = 1
    Number of faces shared with processor 1252 = 2
    Number of processor patches = 10
    Number of processor faces = 14
    Number of boundary faces = 2

Processor 96
    Number of cells = 3
    Number of faces shared with processor 70 = 1
    Number of faces shared with processor 71 = 1
    Number of faces shared with processor 72 = 1
    Number of faces shared with processor 78 = 1
    Number of faces shared with processor 90 = 2
    Number of faces shared with processor 94 = 3
    Number of faces shared with processor 95 = 1
    Number of faces shared with processor 97 = 2
    Number of processor patches = 8
    Number of processor faces = 12
    Number of boundary faces = 2

Processor 97
    Number of cells = 4
    Number of faces shared with processor 78 = 1
    Number of faces shared with processor 84 = 1
    Number of faces shared with processor 86 = 1
    Number of faces shared with processor 87 = 1
    Number of faces shared with processor 90 = 2
    Number of faces shared with processor 91 = 2
    Number of faces shared with processor 93 = 2
    Number of faces shared with processor 94 = 2
    Number of faces shared with processor 96 = 2
    Number of processor patches = 9
    Number of processor faces = 14
    Number of boundary faces = 2

Processor 98
    Number of cells = 3
    Number of faces shared with processor 143 = 1
    Number of faces shared with processor 58 = 1
    Number of faces shared with processor 60 = 1
    Number of faces shared with processor 99 = 2
    Number of faces shared with processor 100 = 2
    Number of faces shared with processor 101 = 1
    Number of faces shared with processor 103 = 2
    Number of faces shared with processor 107 = 1
    Number of faces shared with processor 108 = 2
    Number of faces shared with processor 111 = 1
    Number of processor patches = 10
    Number of processor faces = 14
    Number of boundary faces = 0

Processor 99
    Number of cells = 3
    Number of faces shared with processor 129 = 2
    Number of faces shared with processor 130 = 1
    Number of faces shared with processor 143 = 1
    Number of faces shared with processor 58 = 1
    Number of faces shared with processor 88 = 1
    Number of faces shared with processor 98 = 2
    Number of faces shared with processor 100 = 3
    Number of faces shared with processor 103 = 1
    Number of faces shared with processor 111 = 1
    Number of processor patches = 9
    Number of processor faces = 13
    Number of boundary faces = 1

Processor 100
    Number of cells = 3
    Number of faces shared with processor 130 = 1
    Number of faces shared with processor 60 = 1
    Number of faces shared with processor 98 = 2
    Number of faces shared with processor 99 = 3
    Number of faces shared with processor 109 = 2
    Number of faces shared with processor 111 = 1
    Number of faces shared with processor 112 = 1
    Number of processor patches = 7
    Number of processor faces = 11
    Number of boundary faces = 3

Processor 101
    Number of cells = 3
    Number of faces shared with processor 143 = 2
    Number of faces shared with processor 165 = 1
    Number of faces shared with processor 167 = 1
    Number of faces shared with processor 168 = 1
    Number of faces shared with processor 49 = 2
    Number of faces shared with processor 98 = 1
    Number of faces shared with processor 102 = 3
    Number of faces shared with processor 103 = 1
    Number of faces shared with processor 104 = 1
    Number of faces shared with processor 105 = 1
    Number of processor patches = 10
    Number of processor faces = 14
    Number of boundary faces = 0

Processor 102
    Number of cells = 3
    Number of faces shared with processor 145 = 1
    Number of faces shared with processor 146 = 1
    Number of faces shared with processor 167 = 3
    Number of faces shared with processor 101 = 3
    Number of faces shared with processor 103 = 3
    Number of faces shared with processor 105 = 1
    Number of faces shared with processor 113 = 2
    Number of processor patches = 7
    Number of processor faces = 14
    Number of boundary faces = 0

Processor 103
    Number of cells = 4
    Number of faces shared with processor 137 = 2
    Number of faces shared with processor 143 = 1
    Number of faces shared with processor 146 = 1
    Number of faces shared with processor 98 = 2
    Number of faces shared with processor 99 = 1
    Number of faces shared with processor 101 = 1
    Number of faces shared with processor 102 = 3
    Number of faces shared with processor 106 = 2
    Number of faces shared with processor 111 = 2
    Number of faces shared with processor 115 = 1
    Number of processor patches = 10
    Number of processor faces = 16
    Number of boundary faces = 0

Processor 104
    Number of cells = 3
    Number of faces shared with processor 168 = 1
    Number of faces shared with processor 170 = 2
    Number of faces shared with processor 54 = 2
    Number of faces shared with processor 101 = 1
    Number of faces shared with processor 105 = 3
    Number of faces shared with processor 106 = 1
    Number of faces shared with processor 107 = 2
    Number of faces shared with processor 753 = 2
    Number of processor patches = 8
    Number of processor faces = 14
    Number of boundary faces = 0

Processor 105
    Number of cells = 3
    Number of faces shared with processor 164 = 2
    Number of faces shared with processor 169 = 1
    Number of faces shared with processor 101 = 1
    Number of faces shared with processor 102 = 1
    Number of faces shared with processor 104 = 3
    Number of faces shared with processor 106 = 3
    Number of faces shared with processor 754 = 1
    Number of faces shared with processor 118 = 2
    Number of processor patches = 8
    Number of processor faces = 14
    Number of boundary faces = 0

Processor 106
    Number of cells = 4
    Number of faces shared with processor 103 = 2
    Number of faces shared with processor 104 = 1
    Number of faces shared with processor 105 = 3
    Number of faces shared with processor 107 = 2
    Number of faces shared with processor 108 = 2
    Number of faces shared with processor 755 = 2
    Number of faces shared with processor 118 = 2
    Number of faces shared with processor 121 = 2
    Number of processor patches = 8
    Number of processor faces = 16
    Number of boundary faces = 0

Processor 107
    Number of cells = 3
    Number of faces shared with processor 54 = 2
    Number of faces shared with processor 55 = 1
    Number of faces shared with processor 98 = 1
    Number of faces shared with processor 742 = 1
    Number of faces shared with processor 104 = 2
    Number of faces shared with processor 106 = 2
    Number of faces shared with processor 108 = 3
    Number of faces shared with processor 109 = 1
    Number of faces shared with processor 753 = 1
    Number of processor patches = 9
    Number of processor faces = 14
    Number of boundary faces = 0

Processor 108
    Number of cells = 3
    Number of faces shared with processor 60 = 1
    Number of faces shared with processor 98 = 2
    Number of faces shared with processor 741 = 1
    Number of faces shared with processor 106 = 2
    Number of faces shared with processor 107 = 3
    Number of faces shared with processor 109 = 3
    Number of faces shared with processor 121 = 2
    Number of processor patches = 7
    Number of processor faces = 14
    Number of boundary faces = 0

Processor 109
    Number of cells = 4
    Number of faces shared with processor 55 = 1
    Number of faces shared with processor 60 = 1
    Number of faces shared with processor 100 = 2
    Number of faces shared with processor 743 = 2
    Number of faces shared with processor 107 = 1
    Number of faces shared with processor 108 = 3
    Number of faces shared with processor 121 = 2
    Number of processor patches = 7
    Number of processor faces = 12
    Number of boundary faces = 4

Processor 110
    Number of cells = 3
    Number of faces shared with processor 112 = 2
    Number of faces shared with processor 114 = 1
    Number of faces shared with processor 115 = 1
    Number of faces shared with processor 119 = 1
    Number of faces shared with processor 122 = 1
    Number of faces shared with processor 125 = 1
    Number of faces shared with processor 127 = 1
    Number of processor patches = 7
    Number of processor faces = 8
    Number of boundary faces = 6

Processor 111
    Number of cells = 3
    Number of faces shared with processor 134 = 1
    Number of faces shared with processor 98 = 1
    Number of faces shared with processor 99 = 1
    Number of faces shared with processor 100 = 1
    Number of faces shared with processor 103 = 2
    Number of faces shared with processor 112 = 3
    Number of faces shared with processor 115 = 1
    Number of faces shared with processor 121 = 1
    Number of faces shared with processor 126 = 1
    Number of faces shared with processor 127 = 1
    Number of processor patches = 10
    Number of processor faces = 13
    Number of boundary faces = 1

Processor 112
    Number of cells = 3
    Number of faces shared with processor 134 = 1
    Number of faces shared with processor 100 = 1
    Number of faces shared with processor 110 = 2
    Number of faces shared with processor 111 = 3
    Number of faces shared with processor 115 = 1
    Number of faces shared with processor 120 = 1
    Number of faces shared with processor 121 = 1
    Number of faces shared with processor 127 = 1
    Number of processor patches = 8
    Number of processor faces = 11
    Number of boundary faces = 3

Processor 113
    Number of cells = 3
    Number of faces shared with processor 137 = 1
    Number of faces shared with processor 138 = 1
    Number of faces shared with processor 159 = 1
    Number of faces shared with processor 160 = 2
    Number of faces shared with processor 102 = 2
    Number of faces shared with processor 114 = 2
    Number of faces shared with processor 115 = 2
    Number of faces shared with processor 117 = 1
    Number of faces shared with processor 118 = 1
    Number of processor patches = 9
    Number of processor faces = 13
    Number of boundary faces = 1

Processor 114
    Number of cells = 3
    Number of faces shared with processor 134 = 1
    Number of faces shared with processor 137 = 1
    Number of faces shared with processor 139 = 2
    Number of faces shared with processor 159 = 1
    Number of faces shared with processor 110 = 1
    Number of faces shared with processor 113 = 2
    Number of faces shared with processor 115 = 2
    Number of faces shared with processor 125 = 1
    Number of processor patches = 8
    Number of processor faces = 11
    Number of boundary faces = 3

Processor 115
    Number of cells = 4
    Number of faces shared with processor 134 = 1
    Number of faces shared with processor 137 = 1
    Number of faces shared with processor 103 = 1
    Number of faces shared with processor 110 = 1
    Number of faces shared with processor 111 = 1
    Number of faces shared with processor 112 = 1
    Number of faces shared with processor 113 = 2
    Number of faces shared with processor 114 = 2
    Number of faces shared with processor 116 = 1
    Number of faces shared with processor 117 = 1
    Number of faces shared with processor 118 = 1
    Number of faces shared with processor 120 = 1
    Number of processor patches = 12
    Number of processor faces = 14
    Number of boundary faces = 2

Processor 116
    Number of cells = 3
    Number of faces shared with processor 745 = 1
    Number of faces shared with processor 752 = 1
    Number of faces shared with processor 115 = 1
    Number of faces shared with processor 117 = 3
    Number of faces shared with processor 118 = 1
    Number of faces shared with processor 119 = 2
    Number of faces shared with processor 120 = 2
    Number of processor patches = 7
    Number of processor faces = 11
    Number of boundary faces = 3

Processor 117
    Number of cells = 3
    Number of faces shared with processor 161 = 1
    Number of faces shared with processor 162 = 1
    Number of faces shared with processor 752 = 1
    Number of faces shared with processor 113 = 1
    Number of faces shared with processor 115 = 1
    Number of faces shared with processor 116 = 3
    Number of faces shared with processor 118 = 3
    Number of processor patches = 7
    Number of processor faces = 11
    Number of boundary faces = 3

Processor 118
    Number of cells = 4
    Number of faces shared with processor 162 = 1
    Number of faces shared with processor 163 = 1
    Number of faces shared with processor 105 = 2
    Number of faces shared with processor 106 = 2
    Number of faces shared with processor 751 = 2
    Number of faces shared with processor 113 = 1
    Number of faces shared with processor 115 = 1
    Number of faces shared with processor 116 = 1
    Number of faces shared with processor 117 = 3
    Number of faces shared with processor 120 = 2
    Number of processor patches = 10
    Number of processor faces = 16
    Number of boundary faces = 0

Processor 119
    Number of cells = 3
    Number of faces shared with processor 744 = 1
    Number of faces shared with processor 745 = 1
    Number of faces shared with processor 110 = 1
    Number of faces shared with processor 116 = 2
    Number of faces shared with processor 120 = 3
    Number of faces shared with processor 121 = 1
    Number of processor patches = 6
    Number of processor faces = 9
    Number of boundary faces = 5

Processor 120
    Number of cells = 3
    Number of faces shared with processor 745 = 1
    Number of faces shared with processor 112 = 1
    Number of faces shared with processor 115 = 1
    Number of faces shared with processor 116 = 2
    Number of faces shared with processor 118 = 2
    Number of faces shared with processor 119 = 3
    Number of faces shared with processor 121 = 3
    Number of processor patches = 7
    Number of processor faces = 13
    Number of boundary faces = 1

Processor 121
    Number of cells = 4
    Number of faces shared with processor 741 = 1
    Number of faces shared with processor 744 = 1
    Number of faces shared with processor 106 = 2
    Number of faces shared with processor 108 = 2
    Number of faces shared with processor 109 = 2
    Number of faces shared with processor 111 = 1
    Number of faces shared with processor 112 = 1
    Number of faces shared with processor 119 = 1
    Number of faces shared with processor 120 = 3
    Number of processor patches = 9
    Number of processor faces = 14
    Number of boundary faces = 2

Processor 122
    Number of cells = 3
    Number of faces shared with processor 136 = 1
    Number of faces shared with processor 110 = 1
    Number of faces shared with processor 123 = 2
    Number of faces shared with processor 124 = 2
    Number of faces shared with processor 125 = 2
    Number of faces shared with processor 127 = 1
    Number of processor patches = 6
    Number of processor faces = 9
    Number of boundary faces = 5

Processor 123
    Number of cells = 3
    Number of faces shared with processor 132 = 1
    Number of faces shared with processor 134 = 1
    Number of faces shared with processor 135 = 1
    Number of faces shared with processor 122 = 2
    Number of faces shared with processor 124 = 3
    Number of processor patches = 5
    Number of processor faces = 8
    Number of boundary faces = 6

Processor 124
    Number of cells = 3
    Number of faces shared with processor 132 = 1
    Number of faces shared with processor 133 = 2
    Number of faces shared with processor 135 = 1
    Number of faces shared with processor 122 = 2
    Number of faces shared with processor 123 = 3
    Number of faces shared with processor 125 = 1
    Number of faces shared with processor 127 = 1
    Number of processor patches = 7
    Number of processor faces = 11
    Number of boundary faces = 3

Processor 125
    Number of cells = 3
    Number of faces shared with processor 138 = 1
    Number of faces shared with processor 139 = 2
    Number of faces shared with processor 110 = 1
    Number of faces shared with processor 114 = 1
    Number of faces shared with processor 122 = 2
    Number of faces shared with processor 124 = 1
    Number of faces shared with processor 126 = 3
    Number of faces shared with processor 127 = 1
    Number of processor patches = 8
    Number of processor faces = 12
    Number of boundary faces = 2

Processor 126
    Number of cells = 3
    Number of faces shared with processor 129 = 2
    Number of faces shared with processor 132 = 1
    Number of faces shared with processor 134 = 1
    Number of faces shared with processor 137 = 2
    Number of faces shared with processor 145 = 1
    Number of faces shared with processor 111 = 1
    Number of faces shared with processor 125 = 3
    Number of faces shared with processor 127 = 3
    Number of processor patches = 8
    Number of processor faces = 14
    Number of boundary faces = 0

Processor 127
    Number of cells = 4
    Number of faces shared with processor 130 = 2
    Number of faces shared with processor 133 = 1
    Number of faces shared with processor 110 = 1
    Number of faces shared with processor 111 = 1
    Number of faces shared with processor 112 = 1
    Number of faces shared with processor 122 = 1
    Number of faces shared with processor 124 = 1
    Number of faces shared with processor 125 = 1
    Number of faces shared with processor 126 = 3
    Number of processor patches = 9
    Number of processor faces = 12
    Number of boundary faces = 4

Processor 128
    Number of cells = 3
    Number of faces shared with processor 129 = 2
    Number of faces shared with processor 130 = 2
    Number of faces shared with processor 131 = 2
    Number of faces shared with processor 132 = 1
    Number of faces shared with processor 133 = 1
    Number of faces shared with processor 144 = 2
    Number of faces shared with processor 85 = 2
    Number of faces shared with processor 86 = 1
    Number of processor patches = 8
    Number of processor faces = 13
    Number of boundary faces = 1

Processor 129
    Number of cells = 3
    Number of faces shared with processor 128 = 2
    Number of faces shared with processor 130 = 3
    Number of faces shared with processor 132 = 1
    Number of faces shared with processor 143 = 1
    Number of faces shared with processor 146 = 2
    Number of faces shared with processor 89 = 1
    Number of faces shared with processor 99 = 2
    Number of faces shared with processor 126 = 2
    Number of processor patches = 8
    Number of processor faces = 14
    Number of boundary faces = 0

Processor 130
    Number of cells = 4
    Number of faces shared with processor 128 = 2
    Number of faces shared with processor 129 = 3
    Number of faces shared with processor 133 = 1
    Number of faces shared with processor 88 = 2
    Number of faces shared with processor 99 = 1
    Number of faces shared with processor 100 = 1
    Number of faces shared with processor 127 = 2
    Number of processor patches = 7
    Number of processor faces = 12
    Number of boundary faces = 4

Processor 131
    Number of cells = 3
    Number of faces shared with processor 128 = 2
    Number of faces shared with processor 132 = 2
    Number of faces shared with processor 133 = 2
    Number of faces shared with processor 140 = 2
    Number of faces shared with processor 85 = 1
    Number of faces shared with processor 86 = 1
    Number of processor patches = 6
    Number of processor faces = 10
    Number of boundary faces = 4

Processor 132
    Number of cells = 3
    Number of faces shared with processor 128 = 1
    Number of faces shared with processor 129 = 1
    Number of faces shared with processor 131 = 2
    Number of faces shared with processor 133 = 3
    Number of faces shared with processor 141 = 1
    Number of faces shared with processor 142 = 2
    Number of faces shared with processor 123 = 1
    Number of faces shared with processor 124 = 1
    Number of faces shared with processor 126 = 1
    Number of processor patches = 9
    Number of processor faces = 13
    Number of boundary faces = 1

Processor 133
    Number of cells = 4
    Number of faces shared with processor 128 = 1
    Number of faces shared with processor 130 = 1
    Number of faces shared with processor 131 = 2
    Number of faces shared with processor 132 = 3
    Number of faces shared with processor 124 = 2
    Number of faces shared with processor 127 = 1
    Number of processor patches = 6
    Number of processor faces = 10
    Number of boundary faces = 6

Processor 134
    Number of cells = 3
    Number of faces shared with processor 135 = 2
    Number of faces shared with processor 136 = 2
    Number of faces shared with processor 137 = 1
    Number of faces shared with processor 179 = 1
    Number of faces shared with processor 111 = 1
    Number of faces shared with processor 112 = 1
    Number of faces shared with processor 114 = 1
    Number of faces shared with processor 115 = 1
    Number of faces shared with processor 123 = 1
    Number of faces shared with processor 126 = 1
    Number of processor patches = 10
    Number of processor faces = 12
    Number of boundary faces = 4

Processor 135
    Number of cells = 3
    Number of faces shared with processor 134 = 2
    Number of faces shared with processor 136 = 3
    Number of faces shared with processor 138 = 1
    Number of faces shared with processor 141 = 2
    Number of faces shared with processor 142 = 1
    Number of faces shared with processor 179 = 1
    Number of faces shared with processor 123 = 1
    Number of faces shared with processor 124 = 1
    Number of processor patches = 8
    Number of processor faces = 12
    Number of boundary faces = 2

Processor 136
    Number of cells = 3
    Number of faces shared with processor 134 = 2
    Number of faces shared with processor 135 = 3
[...]
Processor 2492: field transfer
Processor 2493: field transfer
Processor 2494: field transfer
Processor 2495: field transfer
Processor 2496: field transfer
Processor 2497: field transfer
Processor 2498: field transfer
Processor 2499: field transfer
Processor 2500: field transfer
Processor 2501: field transfer
Processor 2502: field transfer
Processor 2503: field transfer
Processor 2504: field transfer
Processor 2505: field transfer
Processor 2506: field transfer
Processor 2507: field transfer
Processor 2508: field transfer
Processor 2509: field transfer
Processor 2510: field transfer
Processor 2511: field transfer
Processor 2512: field transfer
Processor 2513: field transfer
Processor 2514: field transfer
Processor 2515: field transfer
Processor 2516: field transfer
Processor 2517: field transfer
Processor 2518: field transfer
Processor 2519: field transfer
Processor 2520: field transfer
Processor 2521: field transfer
Processor 2522: field transfer
Processor 2523: field transfer
Processor 2524: field transfer
Processor 2525: field transfer
Processor 2526: field transfer
Processor 2527: field transfer
Processor 2528: field transfer
Processor 2529: field transfer
Processor 2530: field transfer
Processor 2531: field transfer
Processor 2532: field transfer
Processor 2533: field transfer
Processor 2534: field transfer
Processor 2535: field transfer
Processor 2536: field transfer
Processor 2537: field transfer
Processor 2538: field transfer
Processor 2539: field transfer
Processor 2540: field transfer
Processor 2541: field transfer
Processor 2542: field transfer
Processor 2543: field transfer
Processor 2544: field transfer
Processor 2545: field transfer
Processor 2546: field transfer
Processor 2547: field transfer
Processor 2548: field transfer
Processor 2549: field transfer
Processor 2550: field transfer
Processor 2551: field transfer
Processor 2552: field transfer
Processor 2553: field transfer
Processor 2554: field transfer
Processor 2555: field transfer
Processor 2556: field transfer
Processor 2557: field transfer
Processor 2558: field transfer
Processor 2559: field transfer
Processor 2560: field transfer
Processor 2561: field transfer
Processor 2562: field transfer
Processor 2563: field transfer
Processor 2564: field transfer
Processor 2565: field transfer
Processor 2566: field transfer
Processor 2567: field transfer
Processor 2568: field transfer
Processor 2569: field transfer
Processor 2570: field transfer
Processor 2571: field transfer
Processor 2572: field transfer
Processor 2573: field transfer
Processor 2574: field transfer
Processor 2575: field transfer
Processor 2576: field transfer
Processor 2577: field transfer
Processor 2578: field transfer
Processor 2579: field transfer
Processor 2580: field transfer
Processor 2581: field transfer
Processor 2582: field transfer
Processor 2583: field transfer
Processor 2584: field transfer
Processor 2585: field transfer
Processor 2586: field transfer
Processor 2587: field transfer
Processor 2588: field transfer
Processor 2589: field transfer
Processor 2590: field transfer
Processor 2591: field transfer
Processor 2592: field transfer
Processor 2593: field transfer
Processor 2594: field transfer
Processor 2595: field transfer
Processor 2596: field transfer
Processor 2597: field transfer
Processor 2598: field transfer
Processor 2599: field transfer
Processor 2600: field transfer
Processor 2601: field transfer
Processor 2602: field transfer
Processor 2603: field transfer
Processor 2604: field transfer
Processor 2605: field transfer
Processor 2606: field transfer
Processor 2607: field transfer
Processor 2608: field transfer
Processor 2609: field transfer
Processor 2610: field transfer
Processor 2611: field transfer
Processor 2612: field transfer
Processor 2613: field transfer
Processor 2614: field transfer
Processor 2615: field transfer
Processor 2616: field transfer
Processor 2617: field transfer
Processor 2618: field transfer
Processor 2619: field transfer
Processor 2620: field transfer
Processor 2621: field transfer
Processor 2622: field transfer
Processor 2623: field transfer
Processor 2624: field transfer
Processor 2625: field transfer
Processor 2626: field transfer
Processor 2627: field transfer
Processor 2628: field transfer
Processor 2629: field transfer
Processor 2630: field transfer
Processor 2631: field transfer
Processor 2632: field transfer
Processor 2633: field transfer
Processor 2634: field transfer
Processor 2635: field transfer
Processor 2636: field transfer
Processor 2637: field transfer
Processor 2638: field transfer
Processor 2639: field transfer
Processor 2640: field transfer
Processor 2641: field transfer
Processor 2642: field transfer
Processor 2643: field transfer
Processor 2644: field transfer
Processor 2645: field transfer
Processor 2646: field transfer
Processor 2647: field transfer
Processor 2648: field transfer
Processor 2649: field transfer
Processor 2650: field transfer
Processor 2651: field transfer
Processor 2652: field transfer
Processor 2653: field transfer
Processor 2654: field transfer
Processor 2655: field transfer
Processor 2656: field transfer
Processor 2657: field transfer
Processor 2658: field transfer
Processor 2659: field transfer
Processor 2660: field transfer
Processor 2661: field transfer
Processor 2662: field transfer
Processor 2663: field transfer
Processor 2664: field transfer
Processor 2665: field transfer
Processor 2666: field transfer
Processor 2667: field transfer
Processor 2668: field transfer
Processor 2669: field transfer
Processor 2670: field transfer
Processor 2671: field transfer
Processor 2672: field transfer
Processor 2673: field transfer
Processor 2674: field transfer
Processor 2675: field transfer
Processor 2676: field transfer
Processor 2677: field transfer
Processor 2678: field transfer
Processor 2679: field transfer
Processor 2680: field transfer
Processor 2681: field transfer
Processor 2682: field transfer
Processor 2683: field transfer
Processor 2684: field transfer
Processor 2685: field transfer
Processor 2686: field transfer
Processor 2687: field transfer
Processor 2688: field transfer
Processor 2689: field transfer
Processor 2690: field transfer
Processor 2691: field transfer
Processor 2692: field transfer
Processor 2693: field transfer
Processor 2694: field transfer
Processor 2695: field transfer
Processor 2696: field transfer
Processor 2697: field transfer
Processor 2698: field transfer
Processor 2699: field transfer
Processor 2700: field transfer
Processor 2701: field transfer
Processor 2702: field transfer
Processor 2703: field transfer
Processor 2704: field transfer
Processor 2705: field transfer
Processor 2706: field transfer
Processor 2707: field transfer
Processor 2708: field transfer
Processor 2709: field transfer
Processor 2710: field transfer
Processor 2711: field transfer
Processor 2712: field transfer
Processor 2713: field transfer
Processor 2714: field transfer
Processor 2715: field transfer
Processor 2716: field transfer
Processor 2717: field transfer
Processor 2718: field transfer
Processor 2719: field transfer
Processor 2720: field transfer
Processor 2721: field transfer
Processor 2722: field transfer
Processor 2723: field transfer
Processor 2724: field transfer
Processor 2725: field transfer
Processor 2726: field transfer
Processor 2727: field transfer
Processor 2728: field transfer
Processor 2729: field transfer
Processor 2730: field transfer
Processor 2731: field transfer
Processor 2732: field transfer
Processor 2733: field transfer
Processor 2734: field transfer
Processor 2735: field transfer
Processor 2736: field transfer
Processor 2737: field transfer
Processor 2738: field transfer
Processor 2739: field transfer
Processor 2740: field transfer
Processor 2741: field transfer
Processor 2742: field transfer
Processor 2743: field transfer
Processor 2744: field transfer
Processor 2745: field transfer
Processor 2746: field transfer
Processor 2747: field transfer
Processor 2748: field transfer
Processor 2749: field transfer
Processor 2750: field transfer
Processor 2751: field transfer
Processor 2752: field transfer
Processor 2753: field transfer
Processor 2754: field transfer
Processor 2755: field transfer
Processor 2756: field transfer
Processor 2757: field transfer
Processor 2758: field transfer
Processor 2759: field transfer
Processor 2760: field transfer
Processor 2761: field transfer
Processor 2762: field transfer
Processor 2763: field transfer
Processor 2764: field transfer
Processor 2765: field transfer
Processor 2766: field transfer
Processor 2767: field transfer
Processor 2768: field transfer
Processor 2769: field transfer
Processor 2770: field transfer
Processor 2771: field transfer
Processor 2772: field transfer
Processor 2773: field transfer
Processor 2774: field transfer
Processor 2775: field transfer
Processor 2776: field transfer
Processor 2777: field transfer
Processor 2778: field transfer
Processor 2779: field transfer
Processor 2780: field transfer
Processor 2781: field transfer
Processor 2782: field transfer
Processor 2783: field transfer
Processor 2784: field transfer
Processor 2785: field transfer
Processor 2786: field transfer
Processor 2787: field transfer
Processor 2788: field transfer
Processor 2789: field transfer
Processor 2790: field transfer
Processor 2791: field transfer
Processor 2792: field transfer
Processor 2793: field transfer
Processor 2794: field transfer
Processor 2795: field transfer
Processor 2796: field transfer
Processor 2797: field transfer
Processor 2798: field transfer
Processor 2799: field transfer
Processor 2800: field transfer
Processor 2801: field transfer
Processor 2802: field transfer
Processor 2803: field transfer
Processor 2804: field transfer
Processor 2805: field transfer
Processor 2806: field transfer
Processor 2807: field transfer
Processor 2808: field transfer
Processor 2809: field transfer
Processor 2810: field transfer
Processor 2811: field transfer
Processor 2812: field transfer
Processor 2813: field transfer
Processor 2814: field transfer
Processor 2815: field transfer
Processor 2816: field transfer
Processor 2817: field transfer
Processor 2818: field transfer
Processor 2819: field transfer
Processor 2820: field transfer
Processor 2821: field transfer
Processor 2822: field transfer
Processor 2823: field transfer
Processor 2824: field transfer
Processor 2825: field transfer
Processor 2826: field transfer
Processor 2827: field transfer
Processor 2828: field transfer
Processor 2829: field transfer
Processor 2830: field transfer
Processor 2831: field transfer
Processor 2832: field transfer
Processor 2833: field transfer
Processor 2834: field transfer
Processor 2835: field transfer
Processor 2836: field transfer
Processor 2837: field transfer
Processor 2838: field transfer
Processor 2839: field transfer
Processor 2840: field transfer
Processor 2841: field transfer
Processor 2842: field transfer
Processor 2843: field transfer
Processor 2844: field transfer
Processor 2845: field transfer
Processor 2846: field transfer
Processor 2847: field transfer
Processor 2848: field transfer
Processor 2849: field transfer
Processor 2850: field transfer
Processor 2851: field transfer
Processor 2852: field transfer
Processor 2853: field transfer
Processor 2854: field transfer
Processor 2855: field transfer
Processor 2856: field transfer
Processor 2857: field transfer
Processor 2858: field transfer
Processor 2859: field transfer
Processor 2860: field transfer
Processor 2861: field transfer
Processor 2862: field transfer
Processor 2863: field transfer
Processor 2864: field transfer
Processor 2865: field transfer
Processor 2866: field transfer
Processor 2867: field transfer
Processor 2868: field transfer
Processor 2869: field transfer
Processor 2870: field transfer
Processor 2871: field transfer
Processor 2872: field transfer
Processor 2873: field transfer
Processor 2874: field transfer
Processor 2875: field transfer
Processor 2876: field transfer
Processor 2877: field transfer
Processor 2878: field transfer
Processor 2879: field transfer
Processor 2880: field transfer
Processor 2881: field transfer
Processor 2882: field transfer
Processor 2883: field transfer
Processor 2884: field transfer
Processor 2885: field transfer
Processor 2886: field transfer
Processor 2887: field transfer
Processor 2888: field transfer
Processor 2889: field transfer
Processor 2890: field transfer
Processor 2891: field transfer
Processor 2892: field transfer
Processor 2893: field transfer
Processor 2894: field transfer
Processor 2895: field transfer
Processor 2896: field transfer
Processor 2897: field transfer
Processor 2898: field transfer
Processor 2899: field transfer
Processor 2900: field transfer
Processor 2901: field transfer
Processor 2902: field transfer
Processor 2903: field transfer
Processor 2904: field transfer
Processor 2905: field transfer
Processor 2906: field transfer
Processor 2907: field transfer
Processor 2908: field transfer
Processor 2909: field transfer
Processor 2910: field transfer
Processor 2911: field transfer
Processor 2912: field transfer
Processor 2913: field transfer
Processor 2914: field transfer
Processor 2915: field transfer
Processor 2916: field transfer
Processor 2917: field transfer
Processor 2918: field transfer
Processor 2919: field transfer
Processor 2920: field transfer
Processor 2921: field transfer
Processor 2922: field transfer
Processor 2923: field transfer
Processor 2924: field transfer
Processor 2925: field transfer
Processor 2926: field transfer
Processor 2927: field transfer
Processor 2928: field transfer
Processor 2929: field transfer
Processor 2930: field transfer
Processor 2931: field transfer
Processor 2932: field transfer
Processor 2933: field transfer
Processor 2934: field transfer
Processor 2935: field transfer
Processor 2936: field transfer
Processor 2937: field transfer
Processor 2938: field transfer
Processor 2939: field transfer
Processor 2940: field transfer
Processor 2941: field transfer
Processor 2942: field transfer
Processor 2943: field transfer
Processor 2944: field transfer
Processor 2945: field transfer
Processor 2946: field transfer
Processor 2947: field transfer
Processor 2948: field transfer
Processor 2949: field transfer
Processor 2950: field transfer
Processor 2951: field transfer
Processor 2952: field transfer
Processor 2953: field transfer
Processor 2954: field transfer
Processor 2955: field transfer
Processor 2956: field transfer
Processor 2957: field transfer
Processor 2958: field transfer
Processor 2959: field transfer
Processor 2960: field transfer
Processor 2961: field transfer
Processor 2962: field transfer
Processor 2963: field transfer
Processor 2964: field transfer
Processor 2965: field transfer
Processor 2966: field transfer
Processor 2967: field transfer
Processor 2968: field transfer
Processor 2969: field transfer
Processor 2970: field transfer
Processor 2971: field transfer
Processor 2972: field transfer
Processor 2973: field transfer
Processor 2974: field transfer
Processor 2975: field transfer
Processor 2976: field transfer
Processor 2977: field transfer
Processor 2978: field transfer
Processor 2979: field transfer
Processor 2980: field transfer
Processor 2981: field transfer
Processor 2982: field transfer
Processor 2983: field transfer
Processor 2984: field transfer
Processor 2985: field transfer
Processor 2986: field transfer
Processor 2987: field transfer
Processor 2988: field transfer
Processor 2989: field transfer
Processor 2990: field transfer
Processor 2991: field transfer
Processor 2992: field transfer
Processor 2993: field transfer
Processor 2994: field transfer
Processor 2995: field transfer
Processor 2996: field transfer
Processor 2997: field transfer
Processor 2998: field transfer
Processor 2999: field transfer
Processor 3000: field transfer
Processor 3001: field transfer
Processor 3002: field transfer
Processor 3003: field transfer
Processor 3004: field transfer
Processor 3005: field transfer
Processor 3006: field transfer
Processor 3007: field transfer
Processor 3008: field transfer
Processor 3009: field transfer
Processor 3010: field transfer
Processor 3011: field transfer
Processor 3012: field transfer
Processor 3013: field transfer
Processor 3014: field transfer
Processor 3015: field transfer
Processor 3016: field transfer
Processor 3017: field transfer
Processor 3018: field transfer
Processor 3019: field transfer
Processor 3020: field transfer
Processor 3021: field transfer
Processor 3022: field transfer
Processor 3023: field transfer
Processor 3024: field transfer
Processor 3025: field transfer
Processor 3026: field transfer
Processor 3027: field transfer
Processor 3028: field transfer
Processor 3029: field transfer
Processor 3030: field transfer
Processor 3031: field transfer
Processor 3032: field transfer
Processor 3033: field transfer
Processor 3034: field transfer
Processor 3035: field transfer
Processor 3036: field transfer
Processor 3037: field transfer
Processor 3038: field transfer
Processor 3039: field transfer
Processor 3040: field transfer
Processor 3041: field transfer
Processor 3042: field transfer
Processor 3043: field transfer
Processor 3044: field transfer
Processor 3045: field transfer
Processor 3046: field transfer
Processor 3047: field transfer
Processor 3048: field transfer
Processor 3049: field transfer
Processor 3050: field transfer
Processor 3051: field transfer
Processor 3052: field transfer
Processor 3053: field transfer
Processor 3054: field transfer
Processor 3055: field transfer
Processor 3056: field transfer
Processor 3057: field transfer
Processor 3058: field transfer
Processor 3059: field transfer
Processor 3060: field transfer
Processor 3061: field transfer
Processor 3062: field transfer
Processor 3063: field transfer
Processor 3064: field transfer
Processor 3065: field transfer
Processor 3066: field transfer
Processor 3067: field transfer
Processor 3068: field transfer
Processor 3069: field transfer
Processor 3070: field transfer
Processor 3071: field transfer
Processor 3072: field transfer
Processor 3073: field transfer
Processor 3074: field transfer
Processor 3075: field transfer
Processor 3076: field transfer
Processor 3077: field transfer
Processor 3078: field transfer
Processor 3079: field transfer
Processor 3080: field transfer
Processor 3081: field transfer
Processor 3082: field transfer
Processor 3083: field transfer
Processor 3084: field transfer
Processor 3085: field transfer
Processor 3086: field transfer
Processor 3087: field transfer
Processor 3088: field transfer
Processor 3089: field transfer
Processor 3090: field transfer
Processor 3091: field transfer
Processor 3092: field transfer
Processor 3093: field transfer
Processor 3094: field transfer
Processor 3095: field transfer
Processor 3096: field transfer
Processor 3097: field transfer
Processor 3098: field transfer
Processor 3099: field transfer
Processor 3100: field transfer
Processor 3101: field transfer
Processor 3102: field transfer
Processor 3103: field transfer
Processor 3104: field transfer
Processor 3105: field transfer
Processor 3106: field transfer
Processor 3107: field transfer
Processor 3108: field transfer
Processor 3109: field transfer
Processor 3110: field transfer
Processor 3111: field transfer
Processor 3112: field transfer
Processor 3113: field transfer
Processor 3114: field transfer
Processor 3115: field transfer
Processor 3116: field transfer
Processor 3117: field transfer
Processor 3118: field transfer
Processor 3119: field transfer
Processor 3120: field transfer
Processor 3121: field transfer
Processor 3122: field transfer
Processor 3123: field transfer
Processor 3124: field transfer
Processor 3125: field transfer
Processor 3126: field transfer
Processor 3127: field transfer
Processor 3128: field transfer
Processor 3129: field transfer
Processor 3130: field transfer
Processor 3131: field transfer
Processor 3132: field transfer
Processor 3133: field transfer
Processor 3134: field transfer
Processor 3135: field transfer

End

