/*---------------------------------------------------------------------------*\
  =========                 |
  \\      /  F ield         | OpenFOAM: The Open Source CFD Toolbox
   \\    /   O peration     | Website:  https://openfoam.org
    \\  /    A nd           | Version:  7
     \\/     M anipulation  |
\*---------------------------------------------------------------------------*/
Build  : 7
Exec   : snappyHexMesh -parallel -overwrite
Date   : Oct 14 2020
Time   : 18:43:14
Host   : "cpu-p-281"
PID    : 95090
I/O    : uncollated
Case   : /rds/user/hpcbras1/hpc-work/csd3/cclake-roce-gcc9-ompi3-ucx/openfoam/Openfoam_Mbike_csd3_cclake_roce_gcc9_ompi3_ucx_3136_56
nProcs : 3136
Slaves : 
3135
(
"cpu-p-281.95091"
"cpu-p-281.95092"
"cpu-p-281.95093"
"cpu-p-281.95094"
"cpu-p-281.95095"
"cpu-p-281.95096"
"cpu-p-281.95097"
"cpu-p-281.95098"
"cpu-p-281.95099"
"cpu-p-281.95100"
"cpu-p-281.95101"
"cpu-p-281.95102"
"cpu-p-281.95103"
"cpu-p-281.95104"
"cpu-p-281.95105"
"cpu-p-281.95106"
"cpu-p-281.95107"
"cpu-p-281.95108"
"cpu-p-281.95109"
"cpu-p-281.95110"
"cpu-p-281.95111"
"cpu-p-281.95112"
"cpu-p-281.95113"
"cpu-p-281.95114"
"cpu-p-281.95115"
"cpu-p-281.95116"
"cpu-p-281.95117"
"cpu-p-281.95118"
"cpu-p-281.95119"
"cpu-p-281.95120"
"cpu-p-281.95121"
"cpu-p-281.95127"
"cpu-p-281.95137"
"cpu-p-281.95147"
"cpu-p-281.95150"
"cpu-p-281.95153"
"cpu-p-281.95155"
"cpu-p-281.95157"
"cpu-p-281.95159"
"cpu-p-281.95161"
"cpu-p-281.95162"
"cpu-p-281.95164"
"cpu-p-281.95165"
"cpu-p-281.95167"
"cpu-p-281.95169"
"cpu-p-281.95172"
"cpu-p-281.95174"
"cpu-p-281.95177"
"cpu-p-281.95180"
"cpu-p-281.95183"
"cpu-p-281.95185"
"cpu-p-281.95186"
"cpu-p-281.95187"
"cpu-p-281.95188"
"cpu-p-281.95189"
"cpu-p-282.6405"
"cpu-p-282.6406"
"cpu-p-282.6407"
"cpu-p-282.6408"
"cpu-p-282.6409"
"cpu-p-282.6410"
"cpu-p-282.6411"
"cpu-p-282.6412"
"cpu-p-282.6413"
"cpu-p-282.6414"
"cpu-p-282.6415"
"cpu-p-282.6416"
"cpu-p-282.6417"
"cpu-p-282.6418"
"cpu-p-282.6419"
"cpu-p-282.6420"
"cpu-p-282.6421"
"cpu-p-282.6422"
"cpu-p-282.6423"
"cpu-p-282.6424"
"cpu-p-282.6425"
"cpu-p-282.6426"
"cpu-p-282.6427"
"cpu-p-282.6428"
"cpu-p-282.6429"
"cpu-p-282.6430"
"cpu-p-282.6431"
"cpu-p-282.6432"
"cpu-p-282.6433"
"cpu-p-282.6434"
"cpu-p-282.6435"
"cpu-p-282.6436"
"cpu-p-282.6437"
"cpu-p-282.6438"
"cpu-p-282.6439"
"cpu-p-282.6440"
"cpu-p-282.6441"
"cpu-p-282.6442"
"cpu-p-282.6443"
"cpu-p-282.6447"
"cpu-p-282.6448"
"cpu-p-282.6449"
"cpu-p-282.6450"
"cpu-p-282.6451"
"cpu-p-282.6452"
"cpu-p-282.6453"
"cpu-p-282.6454"
"cpu-p-282.6455"
"cpu-p-282.6456"
"cpu-p-282.6457"
"cpu-p-282.6458"
"cpu-p-282.6459"
"cpu-p-282.6460"
"cpu-p-282.6461"
"cpu-p-282.6462"
"cpu-p-282.6463"
"cpu-p-283.162775"
"cpu-p-283.162776"
"cpu-p-283.162777"
"cpu-p-283.162778"
"cpu-p-283.162779"
"cpu-p-283.162780"
"cpu-p-283.162781"
"cpu-p-283.162782"
"cpu-p-283.162783"
"cpu-p-283.162784"
"cpu-p-283.162785"
"cpu-p-283.162786"
"cpu-p-283.162787"
"cpu-p-283.162788"
"cpu-p-283.162789"
"cpu-p-283.162790"
"cpu-p-283.162791"
"cpu-p-283.162792"
"cpu-p-283.162793"
"cpu-p-283.162794"
"cpu-p-283.162795"
"cpu-p-283.162796"
"cpu-p-283.162797"
"cpu-p-283.162798"
"cpu-p-283.162799"
"cpu-p-283.162800"
"cpu-p-283.162801"
"cpu-p-283.162802"
"cpu-p-283.162803"
"cpu-p-283.162804"
"cpu-p-283.162805"
"cpu-p-283.162806"
"cpu-p-283.162807"
"cpu-p-283.162808"
"cpu-p-283.162809"
"cpu-p-283.162810"
"cpu-p-283.162811"
"cpu-p-283.162812"
"cpu-p-283.162813"
"cpu-p-283.162814"
"cpu-p-283.162815"
"cpu-p-283.162816"
"cpu-p-283.162817"
"cpu-p-283.162818"
"cpu-p-283.162819"
"cpu-p-283.162820"
"cpu-p-283.162821"
"cpu-p-283.162822"
"cpu-p-283.162823"
"cpu-p-283.162824"
"cpu-p-283.162825"
"cpu-p-283.162826"
"cpu-p-283.162827"
"cpu-p-283.162828"
"cpu-p-283.162830"
"cpu-p-283.162831"
"cpu-p-284.207499"
"cpu-p-284.207500"
"cpu-p-284.207501"
"cpu-p-284.207502"
"cpu-p-284.207503"
"cpu-p-284.207504"
"cpu-p-284.207505"
"cpu-p-284.207506"
"cpu-p-284.207507"
"cpu-p-284.207508"
"cpu-p-284.207509"
"cpu-p-284.207510"
"cpu-p-284.207511"
"cpu-p-284.207512"
"cpu-p-284.207513"
"cpu-p-284.207514"
"cpu-p-284.207515"
"cpu-p-284.207516"
"cpu-p-284.207517"
"cpu-p-284.207518"
"cpu-p-284.207519"
"cpu-p-284.207520"
"cpu-p-284.207521"
"cpu-p-284.207522"
"cpu-p-284.207523"
"cpu-p-284.207524"
"cpu-p-284.207525"
"cpu-p-284.207526"
"cpu-p-284.207527"
"cpu-p-284.207528"
"cpu-p-284.207529"
"cpu-p-284.207530"
"cpu-p-284.207531"
"cpu-p-284.207532"
"cpu-p-284.207533"
"cpu-p-284.207534"
"cpu-p-284.207535"
"cpu-p-284.207536"
"cpu-p-284.207537"
"cpu-p-284.207539"
"cpu-p-284.207540"
"cpu-p-284.207545"
"cpu-p-284.207546"
"cpu-p-284.207547"
"cpu-p-284.207548"
"cpu-p-284.207550"
"cpu-p-284.207553"
"cpu-p-284.207554"
"cpu-p-284.207555"
"cpu-p-284.207572"
"cpu-p-284.207575"
"cpu-p-284.207594"
"cpu-p-284.207595"
"cpu-p-284.207603"
"cpu-p-284.207611"
"cpu-p-284.207612"
"cpu-p-285.68943"
"cpu-p-285.68944"
"cpu-p-285.68945"
"cpu-p-285.68946"
"cpu-p-285.68947"
"cpu-p-285.68948"
"cpu-p-285.68949"
"cpu-p-285.68950"
"cpu-p-285.68951"
"cpu-p-285.68952"
"cpu-p-285.68953"
"cpu-p-285.68954"
"cpu-p-285.68955"
"cpu-p-285.68956"
"cpu-p-285.68957"
"cpu-p-285.68958"
"cpu-p-285.68959"
"cpu-p-285.68960"
"cpu-p-285.68961"
"cpu-p-285.68962"
"cpu-p-285.68963"
"cpu-p-285.68964"
"cpu-p-285.68965"
"cpu-p-285.68966"
"cpu-p-285.68967"
"cpu-p-285.68968"
"cpu-p-285.68969"
"cpu-p-285.68970"
"cpu-p-285.68971"
"cpu-p-285.68972"
"cpu-p-285.68973"
"cpu-p-285.68974"
"cpu-p-285.68975"
"cpu-p-285.68976"
"cpu-p-285.68977"
"cpu-p-285.68978"
"cpu-p-285.68979"
"cpu-p-285.68980"
"cpu-p-285.68981"
"cpu-p-285.68982"
"cpu-p-285.68983"
"cpu-p-285.68984"
"cpu-p-285.68985"
"cpu-p-285.68986"
"cpu-p-285.68987"
"cpu-p-285.68988"
"cpu-p-285.68989"
"cpu-p-285.68990"
"cpu-p-285.68991"
"cpu-p-285.68992"
"cpu-p-285.68993"
"cpu-p-285.68994"
"cpu-p-285.68995"
"cpu-p-285.68996"
"cpu-p-285.69016"
"cpu-p-285.69038"
"cpu-p-286.204305"
"cpu-p-286.204306"
"cpu-p-286.204307"
"cpu-p-286.204308"
"cpu-p-286.204309"
"cpu-p-286.204310"
"cpu-p-286.204311"
"cpu-p-286.204312"
"cpu-p-286.204313"
"cpu-p-286.204314"
"cpu-p-286.204315"
"cpu-p-286.204316"
"cpu-p-286.204317"
"cpu-p-286.204318"
"cpu-p-286.204319"
"cpu-p-286.204320"
"cpu-p-286.204321"
"cpu-p-286.204322"
"cpu-p-286.204323"
"cpu-p-286.204324"
"cpu-p-286.204325"
"cpu-p-286.204326"
"cpu-p-286.204327"
"cpu-p-286.204328"
"cpu-p-286.204329"
"cpu-p-286.204330"
"cpu-p-286.204331"
"cpu-p-286.204332"
"cpu-p-286.204333"
"cpu-p-286.204334"
"cpu-p-286.204335"
"cpu-p-286.204336"
"cpu-p-286.204337"
"cpu-p-286.204338"
"cpu-p-286.204339"
"cpu-p-286.204340"
"cpu-p-286.204341"
"cpu-p-286.204342"
"cpu-p-286.204343"
"cpu-p-286.204344"
"cpu-p-286.204345"
"cpu-p-286.204346"
"cpu-p-286.204347"
"cpu-p-286.204348"
"cpu-p-286.204349"
"cpu-p-286.204350"
"cpu-p-286.204351"
"cpu-p-286.204352"
"cpu-p-286.204353"
"cpu-p-286.204354"
"cpu-p-286.204355"
"cpu-p-286.204356"
"cpu-p-286.204357"
"cpu-p-286.204358"
"cpu-p-286.204359"
"cpu-p-286.204360"
"cpu-p-287.127429"
"cpu-p-287.127430"
"cpu-p-287.127431"
"cpu-p-287.127432"
"cpu-p-287.127433"
"cpu-p-287.127434"
"cpu-p-287.127435"
"cpu-p-287.127436"
"cpu-p-287.127437"
"cpu-p-287.127438"
"cpu-p-287.127439"
"cpu-p-287.127440"
"cpu-p-287.127441"
"cpu-p-287.127442"
"cpu-p-287.127443"
"cpu-p-287.127444"
"cpu-p-287.127445"
"cpu-p-287.127446"
"cpu-p-287.127447"
"cpu-p-287.127448"
"cpu-p-287.127449"
"cpu-p-287.127450"
"cpu-p-287.127451"
"cpu-p-287.127452"
"cpu-p-287.127453"
"cpu-p-287.127454"
"cpu-p-287.127455"
"cpu-p-287.127456"
"cpu-p-287.127457"
"cpu-p-287.127458"
"cpu-p-287.127459"
"cpu-p-287.127460"
"cpu-p-287.127461"
"cpu-p-287.127462"
"cpu-p-287.127463"
"cpu-p-287.127464"
"cpu-p-287.127465"
"cpu-p-287.127466"
"cpu-p-287.127467"
"cpu-p-287.127468"
"cpu-p-287.127469"
"cpu-p-287.127470"
"cpu-p-287.127471"
"cpu-p-287.127472"
"cpu-p-287.127473"
"cpu-p-287.127474"
"cpu-p-287.127475"
"cpu-p-287.127476"
"cpu-p-287.127477"
"cpu-p-287.127478"
"cpu-p-287.127479"
"cpu-p-287.127485"
"cpu-p-287.127489"
"cpu-p-287.127492"
"cpu-p-287.127496"
"cpu-p-287.127504"
"cpu-p-288.166558"
"cpu-p-288.166559"
"cpu-p-288.166560"
"cpu-p-288.166561"
"cpu-p-288.166562"
"cpu-p-288.166563"
"cpu-p-288.166564"
"cpu-p-288.166565"
"cpu-p-288.166566"
"cpu-p-288.166567"
"cpu-p-288.166568"
"cpu-p-288.166569"
"cpu-p-288.166570"
"cpu-p-288.166571"
"cpu-p-288.166572"
"cpu-p-288.166573"
"cpu-p-288.166574"
"cpu-p-288.166575"
"cpu-p-288.166576"
"cpu-p-288.166577"
"cpu-p-288.166578"
"cpu-p-288.166579"
"cpu-p-288.166580"
"cpu-p-288.166581"
"cpu-p-288.166582"
"cpu-p-288.166583"
"cpu-p-288.166584"
"cpu-p-288.166585"
"cpu-p-288.166586"
"cpu-p-288.166587"
"cpu-p-288.166588"
"cpu-p-288.166589"
"cpu-p-288.166590"
"cpu-p-288.166591"
"cpu-p-288.166592"
"cpu-p-288.166593"
"cpu-p-288.166594"
"cpu-p-288.166595"
"cpu-p-288.166596"
"cpu-p-288.166597"
"cpu-p-288.166598"
"cpu-p-288.166599"
"cpu-p-288.166600"
"cpu-p-288.166601"
"cpu-p-288.166602"
"cpu-p-288.166603"
"cpu-p-288.166604"
"cpu-p-288.166605"
"cpu-p-288.166606"
"cpu-p-288.166607"
"cpu-p-288.166608"
"cpu-p-288.166609"
"cpu-p-288.166610"
"cpu-p-288.166611"
"cpu-p-288.166612"
"cpu-p-288.166613"
"cpu-p-289.179842"
"cpu-p-289.179843"
"cpu-p-289.179844"
"cpu-p-289.179845"
"cpu-p-289.179846"
"cpu-p-289.179847"
"cpu-p-289.179848"
"cpu-p-289.179849"
"cpu-p-289.179850"
"cpu-p-289.179851"
"cpu-p-289.179852"
"cpu-p-289.179853"
"cpu-p-289.179854"
"cpu-p-289.179855"
"cpu-p-289.179856"
"cpu-p-289.179857"
"cpu-p-289.179858"
"cpu-p-289.179859"
"cpu-p-289.179860"
"cpu-p-289.179861"
"cpu-p-289.179862"
"cpu-p-289.179863"
"cpu-p-289.179864"
"cpu-p-289.179865"
"cpu-p-289.179866"
"cpu-p-289.179867"
"cpu-p-289.179868"
"cpu-p-289.179869"
"cpu-p-289.179870"
"cpu-p-289.179871"
"cpu-p-289.179872"
"cpu-p-289.179873"
"cpu-p-289.179874"
"cpu-p-289.179875"
"cpu-p-289.179876"
"cpu-p-289.179877"
"cpu-p-289.179878"
"cpu-p-289.179879"
"cpu-p-289.179880"
"cpu-p-289.179881"
"cpu-p-289.179882"
"cpu-p-289.179883"
"cpu-p-289.179884"
"cpu-p-289.179885"
"cpu-p-289.179886"
"cpu-p-289.179887"
"cpu-p-289.179888"
"cpu-p-289.179889"
"cpu-p-289.179890"
"cpu-p-289.179892"
"cpu-p-289.179893"
"cpu-p-289.179894"
"cpu-p-289.179895"
"cpu-p-289.179896"
"cpu-p-289.179897"
"cpu-p-289.179898"
"cpu-p-290.114138"
"cpu-p-290.114139"
"cpu-p-290.114140"
"cpu-p-290.114141"
"cpu-p-290.114142"
"cpu-p-290.114143"
"cpu-p-290.114144"
"cpu-p-290.114145"
"cpu-p-290.114146"
"cpu-p-290.114147"
"cpu-p-290.114148"
"cpu-p-290.114149"
"cpu-p-290.114150"
"cpu-p-290.114151"
"cpu-p-290.114152"
"cpu-p-290.114153"
"cpu-p-290.114154"
"cpu-p-290.114155"
"cpu-p-290.114156"
"cpu-p-290.114157"
"cpu-p-290.114158"
"cpu-p-290.114159"
"cpu-p-290.114160"
"cpu-p-290.114161"
"cpu-p-290.114162"
"cpu-p-290.114163"
"cpu-p-290.114164"
"cpu-p-290.114165"
"cpu-p-290.114166"
"cpu-p-290.114167"
"cpu-p-290.114168"
"cpu-p-290.114169"
"cpu-p-290.114170"
"cpu-p-290.114171"
"cpu-p-290.114172"
"cpu-p-290.114173"
"cpu-p-290.114175"
"cpu-p-290.114176"
"cpu-p-290.114177"
"cpu-p-290.114178"
"cpu-p-290.114179"
"cpu-p-290.114180"
"cpu-p-290.114181"
"cpu-p-290.114182"
"cpu-p-290.114184"
"cpu-p-290.114185"
"cpu-p-290.114186"
"cpu-p-290.114187"
"cpu-p-290.114188"
"cpu-p-290.114189"
"cpu-p-290.114190"
"cpu-p-290.114191"
"cpu-p-290.114192"
"cpu-p-290.114193"
"cpu-p-290.114194"
"cpu-p-290.114195"
"cpu-p-291.11765"
"cpu-p-291.11766"
"cpu-p-291.11767"
"cpu-p-291.11768"
"cpu-p-291.11769"
"cpu-p-291.11771"
"cpu-p-291.11772"
"cpu-p-291.11773"
"cpu-p-291.11774"
"cpu-p-291.11775"
"cpu-p-291.11776"
"cpu-p-291.11777"
"cpu-p-291.11778"
"cpu-p-291.11779"
"cpu-p-291.11780"
"cpu-p-291.11781"
"cpu-p-291.11782"
"cpu-p-291.11783"
"cpu-p-291.11784"
"cpu-p-291.11785"
"cpu-p-291.11786"
"cpu-p-291.11787"
"cpu-p-291.11788"
"cpu-p-291.11789"
"cpu-p-291.11790"
"cpu-p-291.11791"
"cpu-p-291.11792"
"cpu-p-291.11793"
"cpu-p-291.11794"
"cpu-p-291.11795"
"cpu-p-291.11796"
"cpu-p-291.11797"
"cpu-p-291.11798"
"cpu-p-291.11799"
"cpu-p-291.11800"
"cpu-p-291.11801"
"cpu-p-291.11802"
"cpu-p-291.11803"
"cpu-p-291.11804"
"cpu-p-291.11806"
"cpu-p-291.11807"
"cpu-p-291.11808"
"cpu-p-291.11809"
"cpu-p-291.11810"
"cpu-p-291.11811"
"cpu-p-291.11812"
"cpu-p-291.11813"
"cpu-p-291.11814"
"cpu-p-291.11815"
"cpu-p-291.11816"
"cpu-p-291.11817"
"cpu-p-291.11818"
"cpu-p-291.11819"
"cpu-p-291.11820"
"cpu-p-291.11821"
"cpu-p-291.11822"
"cpu-p-292.113020"
"cpu-p-292.113021"
"cpu-p-292.113022"
"cpu-p-292.113023"
"cpu-p-292.113024"
"cpu-p-292.113025"
"cpu-p-292.113026"
"cpu-p-292.113027"
"cpu-p-292.113028"
"cpu-p-292.113029"
"cpu-p-292.113030"
"cpu-p-292.113031"
"cpu-p-292.113032"
"cpu-p-292.113033"
"cpu-p-292.113034"
"cpu-p-292.113035"
"cpu-p-292.113036"
"cpu-p-292.113037"
"cpu-p-292.113038"
"cpu-p-292.113039"
"cpu-p-292.113040"
"cpu-p-292.113041"
"cpu-p-292.113042"
"cpu-p-292.113043"
"cpu-p-292.113044"
"cpu-p-292.113045"
"cpu-p-292.113046"
"cpu-p-292.113047"
"cpu-p-292.113048"
"cpu-p-292.113049"
"cpu-p-292.113050"
"cpu-p-292.113051"
"cpu-p-292.113052"
"cpu-p-292.113053"
"cpu-p-292.113054"
"cpu-p-292.113055"
"cpu-p-292.113056"
"cpu-p-292.113057"
"cpu-p-292.113058"
"cpu-p-292.113059"
"cpu-p-292.113060"
"cpu-p-292.113061"
"cpu-p-292.113062"
"cpu-p-292.113063"
"cpu-p-292.113064"
"cpu-p-292.113065"
"cpu-p-292.113066"
"cpu-p-292.113067"
"cpu-p-292.113069"
"cpu-p-292.113070"
"cpu-p-292.113071"
"cpu-p-292.113072"
"cpu-p-292.113073"
"cpu-p-292.113074"
"cpu-p-292.113075"
"cpu-p-292.113076"
"cpu-p-293.38321"
"cpu-p-293.38322"
"cpu-p-293.38323"
"cpu-p-293.38324"
"cpu-p-293.38325"
"cpu-p-293.38326"
"cpu-p-293.38327"
"cpu-p-293.38328"
"cpu-p-293.38329"
"cpu-p-293.38330"
"cpu-p-293.38331"
"cpu-p-293.38332"
"cpu-p-293.38333"
"cpu-p-293.38334"
"cpu-p-293.38335"
"cpu-p-293.38336"
"cpu-p-293.38337"
"cpu-p-293.38338"
"cpu-p-293.38339"
"cpu-p-293.38340"
"cpu-p-293.38341"
"cpu-p-293.38342"
"cpu-p-293.38343"
"cpu-p-293.38344"
"cpu-p-293.38345"
"cpu-p-293.38346"
"cpu-p-293.38347"
"cpu-p-293.38348"
"cpu-p-293.38349"
"cpu-p-293.38350"
"cpu-p-293.38351"
"cpu-p-293.38352"
"cpu-p-293.38353"
"cpu-p-293.38354"
"cpu-p-293.38355"
"cpu-p-293.38356"
"cpu-p-293.38357"
"cpu-p-293.38358"
"cpu-p-293.38359"
"cpu-p-293.38360"
"cpu-p-293.38361"
"cpu-p-293.38362"
"cpu-p-293.38363"
"cpu-p-293.38364"
"cpu-p-293.38365"
"cpu-p-293.38366"
"cpu-p-293.38367"
"cpu-p-293.38368"
"cpu-p-293.38369"
"cpu-p-293.38370"
"cpu-p-293.38371"
"cpu-p-293.38372"
"cpu-p-293.38373"
"cpu-p-293.38374"
"cpu-p-293.38375"
"cpu-p-293.38376"
"cpu-p-294.89532"
"cpu-p-294.89533"
"cpu-p-294.89534"
"cpu-p-294.89535"
"cpu-p-294.89536"
"cpu-p-294.89537"
"cpu-p-294.89538"
"cpu-p-294.89539"
"cpu-p-294.89540"
"cpu-p-294.89541"
"cpu-p-294.89542"
"cpu-p-294.89543"
"cpu-p-294.89544"
"cpu-p-294.89545"
"cpu-p-294.89546"
"cpu-p-294.89547"
"cpu-p-294.89548"
"cpu-p-294.89549"
"cpu-p-294.89550"
"cpu-p-294.89551"
"cpu-p-294.89552"
"cpu-p-294.89553"
"cpu-p-294.89554"
"cpu-p-294.89555"
"cpu-p-294.89556"
"cpu-p-294.89557"
"cpu-p-294.89558"
"cpu-p-294.89559"
"cpu-p-294.89560"
"cpu-p-294.89561"
"cpu-p-294.89562"
"cpu-p-294.89563"
"cpu-p-294.89564"
"cpu-p-294.89565"
"cpu-p-294.89566"
"cpu-p-294.89567"
"cpu-p-294.89568"
"cpu-p-294.89569"
"cpu-p-294.89570"
"cpu-p-294.89571"
"cpu-p-294.89572"
"cpu-p-294.89573"
"cpu-p-294.89574"
"cpu-p-294.89575"
"cpu-p-294.89576"
"cpu-p-294.89577"
"cpu-p-294.89578"
"cpu-p-294.89579"
"cpu-p-294.89580"
"cpu-p-294.89581"
"cpu-p-294.89582"
"cpu-p-294.89583"
"cpu-p-294.89584"
"cpu-p-294.89585"
"cpu-p-294.89586"
"cpu-p-294.89587"
"cpu-p-295.60761"
"cpu-p-295.60762"
"cpu-p-295.60763"
"cpu-p-295.60764"
"cpu-p-295.60765"
"cpu-p-295.60766"
"cpu-p-295.60767"
"cpu-p-295.60768"
"cpu-p-295.60769"
"cpu-p-295.60770"
"cpu-p-295.60771"
"cpu-p-295.60772"
"cpu-p-295.60773"
"cpu-p-295.60774"
"cpu-p-295.60775"
"cpu-p-295.60776"
"cpu-p-295.60777"
"cpu-p-295.60778"
"cpu-p-295.60779"
"cpu-p-295.60780"
"cpu-p-295.60781"
"cpu-p-295.60782"
"cpu-p-295.60783"
"cpu-p-295.60784"
"cpu-p-295.60785"
"cpu-p-295.60786"
"cpu-p-295.60787"
"cpu-p-295.60788"
"cpu-p-295.60789"
"cpu-p-295.60790"
"cpu-p-295.60791"
"cpu-p-295.60792"
"cpu-p-295.60793"
"cpu-p-295.60794"
"cpu-p-295.60795"
"cpu-p-295.60796"
"cpu-p-295.60797"
"cpu-p-295.60798"
"cpu-p-295.60799"
"cpu-p-295.60801"
"cpu-p-295.60802"
"cpu-p-295.60803"
"cpu-p-295.60804"
"cpu-p-295.60805"
"cpu-p-295.60806"
"cpu-p-295.60807"
"cpu-p-295.60808"
"cpu-p-295.60809"
"cpu-p-295.60810"
"cpu-p-295.60811"
"cpu-p-295.60812"
"cpu-p-295.60813"
"cpu-p-295.60814"
"cpu-p-295.60815"
"cpu-p-295.60816"
"cpu-p-295.60817"
"cpu-p-296.74352"
"cpu-p-296.74353"
"cpu-p-296.74354"
"cpu-p-296.74355"
"cpu-p-296.74356"
"cpu-p-296.74357"
"cpu-p-296.74358"
"cpu-p-296.74359"
"cpu-p-296.74360"
"cpu-p-296.74361"
"cpu-p-296.74362"
"cpu-p-296.74363"
"cpu-p-296.74364"
"cpu-p-296.74365"
"cpu-p-296.74366"
"cpu-p-296.74367"
"cpu-p-296.74368"
"cpu-p-296.74369"
"cpu-p-296.74370"
"cpu-p-296.74371"
"cpu-p-296.74372"
"cpu-p-296.74373"
"cpu-p-296.74374"
"cpu-p-296.74375"
"cpu-p-296.74376"
"cpu-p-296.74378"
"cpu-p-296.74379"
"cpu-p-296.74380"
"cpu-p-296.74382"
"cpu-p-296.74383"
"cpu-p-296.74384"
"cpu-p-296.74385"
"cpu-p-296.74386"
"cpu-p-296.74387"
"cpu-p-296.74388"
"cpu-p-296.74389"
"cpu-p-296.74390"
"cpu-p-296.74391"
"cpu-p-296.74392"
"cpu-p-296.74393"
"cpu-p-296.74394"
"cpu-p-296.74395"
"cpu-p-296.74396"
"cpu-p-296.74397"
"cpu-p-296.74398"
"cpu-p-296.74399"
"cpu-p-296.74400"
"cpu-p-296.74401"
"cpu-p-296.74402"
"cpu-p-296.74403"
"cpu-p-296.74404"
"cpu-p-296.74405"
"cpu-p-296.74406"
"cpu-p-296.74407"
"cpu-p-296.74408"
"cpu-p-296.74409"
"cpu-p-297.44609"
"cpu-p-297.44610"
"cpu-p-297.44611"
"cpu-p-297.44612"
"cpu-p-297.44613"
"cpu-p-297.44614"
"cpu-p-297.44615"
"cpu-p-297.44616"
"cpu-p-297.44617"
"cpu-p-297.44618"
"cpu-p-297.44619"
"cpu-p-297.44620"
"cpu-p-297.44621"
"cpu-p-297.44622"
"cpu-p-297.44623"
"cpu-p-297.44624"
"cpu-p-297.44625"
"cpu-p-297.44626"
"cpu-p-297.44627"
"cpu-p-297.44628"
"cpu-p-297.44629"
"cpu-p-297.44630"
"cpu-p-297.44631"
"cpu-p-297.44632"
"cpu-p-297.44633"
"cpu-p-297.44634"
"cpu-p-297.44635"
"cpu-p-297.44636"
"cpu-p-297.44637"
"cpu-p-297.44638"
"cpu-p-297.44639"
"cpu-p-297.44640"
"cpu-p-297.44641"
"cpu-p-297.44642"
"cpu-p-297.44643"
"cpu-p-297.44645"
"cpu-p-297.44646"
"cpu-p-297.44647"
"cpu-p-297.44648"
"cpu-p-297.44649"
"cpu-p-297.44650"
"cpu-p-297.44651"
"cpu-p-297.44652"
"cpu-p-297.44653"
"cpu-p-297.44654"
"cpu-p-297.44655"
"cpu-p-297.44656"
"cpu-p-297.44657"
"cpu-p-297.44658"
"cpu-p-297.44659"
"cpu-p-297.44660"
"cpu-p-297.44661"
"cpu-p-297.44662"
"cpu-p-297.44663"
"cpu-p-297.44664"
"cpu-p-297.44665"
"cpu-p-298.31431"
"cpu-p-298.31432"
"cpu-p-298.31433"
"cpu-p-298.31434"
"cpu-p-298.31435"
"cpu-p-298.31436"
"cpu-p-298.31437"
"cpu-p-298.31438"
"cpu-p-298.31439"
"cpu-p-298.31440"
"cpu-p-298.31441"
"cpu-p-298.31442"
"cpu-p-298.31443"
"cpu-p-298.31444"
"cpu-p-298.31445"
"cpu-p-298.31446"
"cpu-p-298.31447"
"cpu-p-298.31448"
"cpu-p-298.31449"
"cpu-p-298.31450"
"cpu-p-298.31451"
"cpu-p-298.31452"
"cpu-p-298.31453"
"cpu-p-298.31454"
"cpu-p-298.31455"
"cpu-p-298.31456"
"cpu-p-298.31457"
"cpu-p-298.31458"
"cpu-p-298.31459"
"cpu-p-298.31460"
"cpu-p-298.31461"
"cpu-p-298.31462"
"cpu-p-298.31463"
"cpu-p-298.31464"
"cpu-p-298.31465"
"cpu-p-298.31466"
"cpu-p-298.31467"
"cpu-p-298.31468"
"cpu-p-298.31469"
"cpu-p-298.31470"
"cpu-p-298.31471"
"cpu-p-298.31472"
"cpu-p-298.31473"
"cpu-p-298.31474"
"cpu-p-298.31475"
"cpu-p-298.31476"
"cpu-p-298.31477"
"cpu-p-298.31478"
"cpu-p-298.31479"
"cpu-p-298.31480"
"cpu-p-298.31481"
"cpu-p-298.31483"
"cpu-p-298.31484"
"cpu-p-298.31485"
"cpu-p-298.31486"
"cpu-p-298.31489"
"cpu-p-299.225102"
"cpu-p-299.225103"
"cpu-p-299.225104"
"cpu-p-299.225105"
"cpu-p-299.225106"
"cpu-p-299.225107"
"cpu-p-299.225108"
"cpu-p-299.225109"
"cpu-p-299.225110"
"cpu-p-299.225111"
"cpu-p-299.225112"
"cpu-p-299.225113"
"cpu-p-299.225114"
"cpu-p-299.225115"
"cpu-p-299.225116"
"cpu-p-299.225117"
"cpu-p-299.225118"
"cpu-p-299.225119"
"cpu-p-299.225120"
"cpu-p-299.225121"
"cpu-p-299.225122"
"cpu-p-299.225123"
"cpu-p-299.225124"
"cpu-p-299.225125"
"cpu-p-299.225126"
"cpu-p-299.225127"
"cpu-p-299.225128"
"cpu-p-299.225129"
"cpu-p-299.225130"
"cpu-p-299.225131"
"cpu-p-299.225132"
"cpu-p-299.225133"
"cpu-p-299.225134"
"cpu-p-299.225135"
"cpu-p-299.225136"
"cpu-p-299.225140"
"cpu-p-299.225141"
"cpu-p-299.225142"
"cpu-p-299.225143"
"cpu-p-299.225144"
"cpu-p-299.225145"
"cpu-p-299.225146"
"cpu-p-299.225147"
"cpu-p-299.225148"
"cpu-p-299.225149"
"cpu-p-299.225150"
"cpu-p-299.225151"
"cpu-p-299.225152"
"cpu-p-299.225153"
"cpu-p-299.225154"
"cpu-p-299.225155"
"cpu-p-299.225156"
"cpu-p-299.225157"
"cpu-p-299.225158"
"cpu-p-299.225159"
"cpu-p-299.225160"
"cpu-p-300.245511"
"cpu-p-300.245512"
"cpu-p-300.245513"
"cpu-p-300.245514"
"cpu-p-300.245515"
"cpu-p-300.245516"
"cpu-p-300.245517"
"cpu-p-300.245518"
"cpu-p-300.245519"
"cpu-p-300.245520"
"cpu-p-300.245521"
"cpu-p-300.245522"
"cpu-p-300.245523"
"cpu-p-300.245524"
"cpu-p-300.245525"
"cpu-p-300.245526"
"cpu-p-300.245527"
"cpu-p-300.245528"
"cpu-p-300.245529"
"cpu-p-300.245530"
"cpu-p-300.245531"
"cpu-p-300.245532"
"cpu-p-300.245533"
"cpu-p-300.245534"
"cpu-p-300.245535"
"cpu-p-300.245536"
"cpu-p-300.245537"
"cpu-p-300.245538"
"cpu-p-300.245539"
"cpu-p-300.245540"
"cpu-p-300.245541"
"cpu-p-300.245542"
"cpu-p-300.245543"
"cpu-p-300.245546"
"cpu-p-300.245547"
"cpu-p-300.245548"
"cpu-p-300.245549"
"cpu-p-300.245550"
"cpu-p-300.245551"
"cpu-p-300.245552"
"cpu-p-300.245553"
"cpu-p-300.245554"
"cpu-p-300.245555"
"cpu-p-300.245556"
"cpu-p-300.245557"
"cpu-p-300.245558"
"cpu-p-300.245559"
"cpu-p-300.245560"
"cpu-p-300.245561"
"cpu-p-300.245562"
"cpu-p-300.245563"
"cpu-p-300.245564"
"cpu-p-300.245565"
"cpu-p-300.245566"
"cpu-p-300.245567"
"cpu-p-300.245568"
"cpu-p-301.235330"
"cpu-p-301.235331"
"cpu-p-301.235332"
"cpu-p-301.235333"
"cpu-p-301.235334"
"cpu-p-301.235335"
"cpu-p-301.235336"
"cpu-p-301.235337"
"cpu-p-301.235338"
"cpu-p-301.235339"
"cpu-p-301.235340"
"cpu-p-301.235341"
"cpu-p-301.235342"
"cpu-p-301.235343"
"cpu-p-301.235344"
"cpu-p-301.235345"
"cpu-p-301.235346"
"cpu-p-301.235347"
"cpu-p-301.235348"
"cpu-p-301.235349"
"cpu-p-301.235350"
"cpu-p-301.235351"
"cpu-p-301.235352"
"cpu-p-301.235353"
"cpu-p-301.235354"
"cpu-p-301.235355"
"cpu-p-301.235356"
"cpu-p-301.235357"
"cpu-p-301.235358"
"cpu-p-301.235359"
"cpu-p-301.235360"
"cpu-p-301.235361"
"cpu-p-301.235362"
"cpu-p-301.235363"
"cpu-p-301.235364"
"cpu-p-301.235365"
"cpu-p-301.235366"
"cpu-p-301.235367"
"cpu-p-301.235368"
"cpu-p-301.235369"
"cpu-p-301.235370"
"cpu-p-301.235371"
"cpu-p-301.235374"
"cpu-p-301.235375"
"cpu-p-301.235377"
"cpu-p-301.235378"
"cpu-p-301.235379"
"cpu-p-301.235380"
"cpu-p-301.235381"
"cpu-p-301.235382"
"cpu-p-301.235383"
"cpu-p-301.235384"
"cpu-p-301.235385"
"cpu-p-301.235386"
"cpu-p-301.235387"
"cpu-p-301.235388"
"cpu-p-302.193386"
"cpu-p-302.193387"
"cpu-p-302.193388"
"cpu-p-302.193389"
"cpu-p-302.193390"
"cpu-p-302.193391"
"cpu-p-302.193392"
"cpu-p-302.193393"
"cpu-p-302.193394"
"cpu-p-302.193395"
"cpu-p-302.193396"
"cpu-p-302.193397"
"cpu-p-302.193398"
"cpu-p-302.193399"
"cpu-p-302.193400"
"cpu-p-302.193401"
"cpu-p-302.193402"
"cpu-p-302.193403"
"cpu-p-302.193404"
"cpu-p-302.193405"
"cpu-p-302.193406"
"cpu-p-302.193407"
"cpu-p-302.193408"
"cpu-p-302.193409"
"cpu-p-302.193410"
"cpu-p-302.193411"
"cpu-p-302.193412"
"cpu-p-302.193413"
"cpu-p-302.193414"
"cpu-p-302.193415"
"cpu-p-302.193416"
"cpu-p-302.193417"
"cpu-p-302.193418"
"cpu-p-302.193419"
"cpu-p-302.193420"
"cpu-p-302.193421"
"cpu-p-302.193422"
"cpu-p-302.193423"
"cpu-p-302.193424"
"cpu-p-302.193425"
"cpu-p-302.193426"
"cpu-p-302.193427"
"cpu-p-302.193428"
"cpu-p-302.193429"
"cpu-p-302.193430"
"cpu-p-302.193431"
"cpu-p-302.193432"
"cpu-p-302.193433"
"cpu-p-302.193434"
"cpu-p-302.193435"
"cpu-p-302.193436"
"cpu-p-302.193437"
"cpu-p-302.193438"
"cpu-p-302.193439"
"cpu-p-302.193440"
"cpu-p-302.193441"
"cpu-p-303.105645"
"cpu-p-303.105646"
"cpu-p-303.105647"
"cpu-p-303.105648"
"cpu-p-303.105649"
"cpu-p-303.105650"
"cpu-p-303.105651"
"cpu-p-303.105653"
"cpu-p-303.105654"
"cpu-p-303.105655"
"cpu-p-303.105657"
"cpu-p-303.105658"
"cpu-p-303.105659"
"cpu-p-303.105660"
"cpu-p-303.105661"
"cpu-p-303.105662"
"cpu-p-303.105663"
"cpu-p-303.105664"
"cpu-p-303.105665"
"cpu-p-303.105666"
"cpu-p-303.105667"
"cpu-p-303.105668"
"cpu-p-303.105669"
"cpu-p-303.105670"
"cpu-p-303.105671"
"cpu-p-303.105672"
"cpu-p-303.105673"
"cpu-p-303.105674"
"cpu-p-303.105675"
"cpu-p-303.105676"
"cpu-p-303.105677"
"cpu-p-303.105678"
"cpu-p-303.105679"
"cpu-p-303.105680"
"cpu-p-303.105682"
"cpu-p-303.105683"
"cpu-p-303.105684"
"cpu-p-303.105685"
"cpu-p-303.105686"
"cpu-p-303.105687"
"cpu-p-303.105688"
"cpu-p-303.105689"
"cpu-p-303.105690"
"cpu-p-303.105691"
"cpu-p-303.105692"
"cpu-p-303.105693"
"cpu-p-303.105694"
"cpu-p-303.105695"
"cpu-p-303.105696"
"cpu-p-303.105697"
"cpu-p-303.105698"
"cpu-p-303.105699"
"cpu-p-303.105700"
"cpu-p-303.105701"
"cpu-p-303.105704"
"cpu-p-303.105705"
"cpu-p-304.161249"
"cpu-p-304.161250"
"cpu-p-304.161251"
"cpu-p-304.161252"
"cpu-p-304.161253"
"cpu-p-304.161254"
"cpu-p-304.161255"
"cpu-p-304.161256"
"cpu-p-304.161257"
"cpu-p-304.161258"
"cpu-p-304.161259"
"cpu-p-304.161260"
"cpu-p-304.161261"
"cpu-p-304.161262"
"cpu-p-304.161263"
"cpu-p-304.161264"
"cpu-p-304.161265"
"cpu-p-304.161266"
"cpu-p-304.161267"
"cpu-p-304.161268"
"cpu-p-304.161269"
"cpu-p-304.161270"
"cpu-p-304.161271"
"cpu-p-304.161272"
"cpu-p-304.161273"
"cpu-p-304.161274"
"cpu-p-304.161275"
"cpu-p-304.161276"
"cpu-p-304.161277"
"cpu-p-304.161278"
"cpu-p-304.161279"
"cpu-p-304.161280"
"cpu-p-304.161281"
"cpu-p-304.161282"
"cpu-p-304.161283"
"cpu-p-304.161284"
"cpu-p-304.161285"
"cpu-p-304.161286"
"cpu-p-304.161287"
"cpu-p-304.161288"
"cpu-p-304.161289"
"cpu-p-304.161290"
"cpu-p-304.161291"
"cpu-p-304.161293"
"cpu-p-304.161294"
"cpu-p-304.161295"
"cpu-p-304.161296"
"cpu-p-304.161297"
"cpu-p-304.161298"
"cpu-p-304.161300"
"cpu-p-304.161301"
"cpu-p-304.161302"
"cpu-p-304.161303"
"cpu-p-304.161304"
"cpu-p-304.161305"
"cpu-p-304.161306"
"cpu-p-305.149562"
"cpu-p-305.149563"
"cpu-p-305.149564"
"cpu-p-305.149565"
"cpu-p-305.149566"
"cpu-p-305.149568"
"cpu-p-305.149569"
"cpu-p-305.149570"
"cpu-p-305.149571"
"cpu-p-305.149572"
"cpu-p-305.149573"
"cpu-p-305.149574"
"cpu-p-305.149575"
"cpu-p-305.149576"
"cpu-p-305.149577"
"cpu-p-305.149578"
"cpu-p-305.149579"
"cpu-p-305.149580"
"cpu-p-305.149581"
"cpu-p-305.149582"
"cpu-p-305.149583"
"cpu-p-305.149584"
"cpu-p-305.149585"
"cpu-p-305.149586"
"cpu-p-305.149587"
"cpu-p-305.149588"
"cpu-p-305.149589"
"cpu-p-305.149590"
"cpu-p-305.149591"
"cpu-p-305.149592"
"cpu-p-305.149593"
"cpu-p-305.149594"
"cpu-p-305.149595"
"cpu-p-305.149596"
"cpu-p-305.149597"
"cpu-p-305.149598"
"cpu-p-305.149599"
"cpu-p-305.149600"
"cpu-p-305.149601"
"cpu-p-305.149602"
"cpu-p-305.149603"
"cpu-p-305.149604"
"cpu-p-305.149605"
"cpu-p-305.149607"
"cpu-p-305.149608"
"cpu-p-305.149609"
"cpu-p-305.149610"
"cpu-p-305.149611"
"cpu-p-305.149612"
"cpu-p-305.149613"
"cpu-p-305.149614"
"cpu-p-305.149615"
"cpu-p-305.149616"
"cpu-p-305.149617"
"cpu-p-305.149618"
"cpu-p-305.149619"
"cpu-p-306.151932"
"cpu-p-306.151933"
"cpu-p-306.151934"
"cpu-p-306.151935"
"cpu-p-306.151936"
"cpu-p-306.151937"
"cpu-p-306.151938"
"cpu-p-306.151939"
"cpu-p-306.151940"
"cpu-p-306.151941"
"cpu-p-306.151942"
"cpu-p-306.151943"
"cpu-p-306.151944"
"cpu-p-306.151945"
"cpu-p-306.151946"
"cpu-p-306.151947"
"cpu-p-306.151948"
"cpu-p-306.151949"
"cpu-p-306.151950"
"cpu-p-306.151951"
"cpu-p-306.151952"
"cpu-p-306.151953"
"cpu-p-306.151954"
"cpu-p-306.151955"
"cpu-p-306.151956"
"cpu-p-306.151957"
"cpu-p-306.151958"
"cpu-p-306.151959"
"cpu-p-306.151960"
"cpu-p-306.151961"
"cpu-p-306.151962"
"cpu-p-306.151963"
"cpu-p-306.151964"
"cpu-p-306.151965"
"cpu-p-306.151966"
"cpu-p-306.151967"
"cpu-p-306.151968"
"cpu-p-306.151969"
"cpu-p-306.151970"
"cpu-p-306.151971"
"cpu-p-306.151972"
"cpu-p-306.151973"
"cpu-p-306.151974"
"cpu-p-306.151975"
"cpu-p-306.151976"
"cpu-p-306.151977"
"cpu-p-306.151978"
"cpu-p-306.151979"
"cpu-p-306.151980"
"cpu-p-306.151981"
"cpu-p-306.151982"
"cpu-p-306.151983"
"cpu-p-306.151985"
"cpu-p-306.151986"
"cpu-p-306.151990"
"cpu-p-306.151991"
"cpu-p-307.119735"
"cpu-p-307.119736"
"cpu-p-307.119737"
"cpu-p-307.119738"
"cpu-p-307.119739"
"cpu-p-307.119740"
"cpu-p-307.119741"
"cpu-p-307.119742"
"cpu-p-307.119743"
"cpu-p-307.119744"
"cpu-p-307.119745"
"cpu-p-307.119746"
"cpu-p-307.119747"
"cpu-p-307.119748"
"cpu-p-307.119749"
"cpu-p-307.119750"
"cpu-p-307.119751"
"cpu-p-307.119752"
"cpu-p-307.119753"
"cpu-p-307.119754"
"cpu-p-307.119755"
"cpu-p-307.119756"
"cpu-p-307.119757"
"cpu-p-307.119758"
"cpu-p-307.119759"
"cpu-p-307.119760"
"cpu-p-307.119761"
"cpu-p-307.119762"
"cpu-p-307.119763"
"cpu-p-307.119764"
"cpu-p-307.119765"
"cpu-p-307.119766"
"cpu-p-307.119768"
"cpu-p-307.119769"
"cpu-p-307.119770"
"cpu-p-307.119771"
"cpu-p-307.119772"
"cpu-p-307.119773"
"cpu-p-307.119774"
"cpu-p-307.119775"
"cpu-p-307.119776"
"cpu-p-307.119777"
"cpu-p-307.119778"
"cpu-p-307.119779"
"cpu-p-307.119780"
"cpu-p-307.119781"
"cpu-p-307.119782"
"cpu-p-307.119783"
"cpu-p-307.119784"
"cpu-p-307.119785"
"cpu-p-307.119786"
"cpu-p-307.119787"
"cpu-p-307.119788"
"cpu-p-307.119789"
"cpu-p-307.119790"
"cpu-p-307.119791"
"cpu-p-308.111028"
"cpu-p-308.111029"
"cpu-p-308.111030"
"cpu-p-308.111031"
"cpu-p-308.111032"
"cpu-p-308.111033"
"cpu-p-308.111034"
"cpu-p-308.111035"
"cpu-p-308.111036"
"cpu-p-308.111037"
"cpu-p-308.111038"
"cpu-p-308.111039"
"cpu-p-308.111040"
"cpu-p-308.111041"
"cpu-p-308.111042"
"cpu-p-308.111043"
"cpu-p-308.111044"
"cpu-p-308.111045"
"cpu-p-308.111046"
"cpu-p-308.111047"
"cpu-p-308.111048"
"cpu-p-308.111049"
"cpu-p-308.111050"
"cpu-p-308.111051"
"cpu-p-308.111052"
"cpu-p-308.111053"
"cpu-p-308.111054"
"cpu-p-308.111055"
"cpu-p-308.111056"
"cpu-p-308.111057"
"cpu-p-308.111058"
"cpu-p-308.111059"
"cpu-p-308.111060"
"cpu-p-308.111061"
"cpu-p-308.111062"
"cpu-p-308.111063"
"cpu-p-308.111064"
"cpu-p-308.111065"
"cpu-p-308.111066"
"cpu-p-308.111067"
"cpu-p-308.111068"
"cpu-p-308.111069"
"cpu-p-308.111070"
"cpu-p-308.111073"
"cpu-p-308.111074"
"cpu-p-308.111075"
"cpu-p-308.111076"
"cpu-p-308.111077"
"cpu-p-308.111078"
"cpu-p-308.111079"
"cpu-p-308.111080"
"cpu-p-308.111081"
"cpu-p-308.111082"
"cpu-p-308.111083"
"cpu-p-308.111084"
"cpu-p-308.111085"
"cpu-p-309.141141"
"cpu-p-309.141142"
"cpu-p-309.141143"
"cpu-p-309.141144"
"cpu-p-309.141145"
"cpu-p-309.141146"
"cpu-p-309.141147"
"cpu-p-309.141148"
"cpu-p-309.141149"
"cpu-p-309.141150"
"cpu-p-309.141151"
"cpu-p-309.141152"
"cpu-p-309.141153"
"cpu-p-309.141154"
"cpu-p-309.141155"
"cpu-p-309.141156"
"cpu-p-309.141157"
"cpu-p-309.141158"
"cpu-p-309.141159"
"cpu-p-309.141160"
"cpu-p-309.141161"
"cpu-p-309.141162"
"cpu-p-309.141163"
"cpu-p-309.141164"
"cpu-p-309.141165"
"cpu-p-309.141166"
"cpu-p-309.141167"
"cpu-p-309.141168"
"cpu-p-309.141169"
"cpu-p-309.141170"
"cpu-p-309.141172"
"cpu-p-309.141173"
"cpu-p-309.141174"
"cpu-p-309.141175"
"cpu-p-309.141176"
"cpu-p-309.141177"
"cpu-p-309.141178"
"cpu-p-309.141179"
"cpu-p-309.141180"
"cpu-p-309.141181"
"cpu-p-309.141182"
"cpu-p-309.141183"
"cpu-p-309.141184"
"cpu-p-309.141185"
"cpu-p-309.141186"
"cpu-p-309.141187"
"cpu-p-309.141188"
"cpu-p-309.141189"
"cpu-p-309.141190"
"cpu-p-309.141191"
"cpu-p-309.141192"
"cpu-p-309.141193"
"cpu-p-309.141194"
"cpu-p-309.141195"
"cpu-p-309.141196"
"cpu-p-309.141197"
"cpu-p-310.120532"
"cpu-p-310.120533"
"cpu-p-310.120534"
"cpu-p-310.120535"
"cpu-p-310.120536"
"cpu-p-310.120537"
"cpu-p-310.120538"
"cpu-p-310.120539"
"cpu-p-310.120540"
"cpu-p-310.120541"
"cpu-p-310.120542"
"cpu-p-310.120543"
"cpu-p-310.120544"
"cpu-p-310.120545"
"cpu-p-310.120546"
"cpu-p-310.120547"
"cpu-p-310.120548"
"cpu-p-310.120549"
"cpu-p-310.120550"
"cpu-p-310.120551"
"cpu-p-310.120552"
"cpu-p-310.120553"
"cpu-p-310.120554"
"cpu-p-310.120555"
"cpu-p-310.120556"
"cpu-p-310.120557"
"cpu-p-310.120558"
"cpu-p-310.120559"
"cpu-p-310.120560"
"cpu-p-310.120561"
"cpu-p-310.120562"
"cpu-p-310.120563"
"cpu-p-310.120564"
"cpu-p-310.120565"
"cpu-p-310.120566"
"cpu-p-310.120567"
"cpu-p-310.120568"
"cpu-p-310.120569"
"cpu-p-310.120570"
"cpu-p-310.120571"
"cpu-p-310.120572"
"cpu-p-310.120573"
"cpu-p-310.120575"
"cpu-p-310.120576"
"cpu-p-310.120577"
"cpu-p-310.120578"
"cpu-p-310.120579"
"cpu-p-310.120580"
"cpu-p-310.120581"
"cpu-p-310.120582"
"cpu-p-310.120583"
"cpu-p-310.120584"
"cpu-p-310.120585"
"cpu-p-310.120586"
"cpu-p-310.120588"
"cpu-p-310.120589"
"cpu-p-311.8264"
"cpu-p-311.8265"
"cpu-p-311.8266"
"cpu-p-311.8267"
"cpu-p-311.8268"
"cpu-p-311.8269"
"cpu-p-311.8270"
"cpu-p-311.8271"
"cpu-p-311.8272"
"cpu-p-311.8273"
"cpu-p-311.8274"
"cpu-p-311.8275"
"cpu-p-311.8276"
"cpu-p-311.8277"
"cpu-p-311.8278"
"cpu-p-311.8279"
"cpu-p-311.8280"
"cpu-p-311.8281"
"cpu-p-311.8282"
"cpu-p-311.8283"
"cpu-p-311.8284"
"cpu-p-311.8285"
"cpu-p-311.8286"
"cpu-p-311.8287"
"cpu-p-311.8288"
"cpu-p-311.8289"
"cpu-p-311.8290"
"cpu-p-311.8291"
"cpu-p-311.8292"
"cpu-p-311.8293"
"cpu-p-311.8294"
"cpu-p-311.8295"
"cpu-p-311.8296"
"cpu-p-311.8297"
"cpu-p-311.8298"
"cpu-p-311.8299"
"cpu-p-311.8300"
"cpu-p-311.8301"
"cpu-p-311.8302"
"cpu-p-311.8303"
"cpu-p-311.8304"
"cpu-p-311.8305"
"cpu-p-311.8306"
"cpu-p-311.8307"
"cpu-p-311.8308"
"cpu-p-311.8309"
"cpu-p-311.8310"
"cpu-p-311.8311"
"cpu-p-311.8312"
"cpu-p-311.8313"
"cpu-p-311.8315"
"cpu-p-311.8316"
"cpu-p-311.8319"
"cpu-p-311.8320"
"cpu-p-311.8321"
"cpu-p-311.8323"
"cpu-p-312.216903"
"cpu-p-312.216904"
"cpu-p-312.216905"
"cpu-p-312.216906"
"cpu-p-312.216907"
"cpu-p-312.216908"
"cpu-p-312.216909"
"cpu-p-312.216910"
"cpu-p-312.216911"
"cpu-p-312.216912"
"cpu-p-312.216913"
"cpu-p-312.216914"
"cpu-p-312.216915"
"cpu-p-312.216916"
"cpu-p-312.216917"
"cpu-p-312.216918"
"cpu-p-312.216919"
"cpu-p-312.216920"
"cpu-p-312.216921"
"cpu-p-312.216922"
"cpu-p-312.216923"
"cpu-p-312.216924"
"cpu-p-312.216925"
"cpu-p-312.216926"
"cpu-p-312.216927"
"cpu-p-312.216929"
"cpu-p-312.216930"
"cpu-p-312.216931"
"cpu-p-312.216932"
"cpu-p-312.216933"
"cpu-p-312.216934"
"cpu-p-312.216935"
"cpu-p-312.216936"
"cpu-p-312.216937"
"cpu-p-312.216938"
"cpu-p-312.216939"
"cpu-p-312.216940"
"cpu-p-312.216941"
"cpu-p-312.216942"
"cpu-p-312.216943"
"cpu-p-312.216944"
"cpu-p-312.216945"
"cpu-p-312.216946"
"cpu-p-312.216947"
"cpu-p-312.216948"
"cpu-p-312.216949"
"cpu-p-312.216950"
"cpu-p-312.216951"
"cpu-p-312.216952"
"cpu-p-312.216953"
"cpu-p-312.216954"
"cpu-p-312.216955"
"cpu-p-312.216957"
"cpu-p-312.216960"
"cpu-p-312.216961"
"cpu-p-312.216962"
"cpu-p-313.218012"
"cpu-p-313.218013"
"cpu-p-313.218014"
"cpu-p-313.218015"
"cpu-p-313.218016"
"cpu-p-313.218017"
"cpu-p-313.218018"
"cpu-p-313.218019"
"cpu-p-313.218020"
"cpu-p-313.218021"
"cpu-p-313.218022"
"cpu-p-313.218023"
"cpu-p-313.218024"
"cpu-p-313.218025"
"cpu-p-313.218026"
"cpu-p-313.218027"
"cpu-p-313.218028"
"cpu-p-313.218029"
"cpu-p-313.218030"
"cpu-p-313.218031"
"cpu-p-313.218032"
"cpu-p-313.218033"
"cpu-p-313.218034"
"cpu-p-313.218035"
"cpu-p-313.218036"
"cpu-p-313.218037"
"cpu-p-313.218038"
"cpu-p-313.218039"
"cpu-p-313.218040"
"cpu-p-313.218041"
"cpu-p-313.218042"
"cpu-p-313.218043"
"cpu-p-313.218044"
"cpu-p-313.218045"
"cpu-p-313.218046"
"cpu-p-313.218047"
"cpu-p-313.218048"
"cpu-p-313.218049"
"cpu-p-313.218050"
"cpu-p-313.218051"
"cpu-p-313.218052"
"cpu-p-313.218053"
"cpu-p-313.218054"
"cpu-p-313.218055"
"cpu-p-313.218056"
"cpu-p-313.218057"
"cpu-p-313.218058"
"cpu-p-313.218059"
"cpu-p-313.218060"
"cpu-p-313.218062"
"cpu-p-313.218063"
"cpu-p-313.218064"
"cpu-p-313.218065"
"cpu-p-313.218066"
"cpu-p-313.218067"
"cpu-p-313.218068"
"cpu-p-314.122100"
"cpu-p-314.122101"
"cpu-p-314.122102"
"cpu-p-314.122103"
"cpu-p-314.122104"
"cpu-p-314.122105"
"cpu-p-314.122106"
"cpu-p-314.122107"
"cpu-p-314.122108"
"cpu-p-314.122109"
"cpu-p-314.122110"
"cpu-p-314.122111"
"cpu-p-314.122112"
"cpu-p-314.122113"
"cpu-p-314.122114"
"cpu-p-314.122115"
"cpu-p-314.122116"
"cpu-p-314.122117"
"cpu-p-314.122118"
"cpu-p-314.122119"
"cpu-p-314.122120"
"cpu-p-314.122121"
"cpu-p-314.122122"
"cpu-p-314.122123"
"cpu-p-314.122124"
"cpu-p-314.122125"
"cpu-p-314.122126"
"cpu-p-314.122127"
"cpu-p-314.122128"
"cpu-p-314.122129"
"cpu-p-314.122130"
"cpu-p-314.122131"
"cpu-p-314.122132"
"cpu-p-314.122133"
"cpu-p-314.122134"
"cpu-p-314.122135"
"cpu-p-314.122136"
"cpu-p-314.122137"
"cpu-p-314.122138"
"cpu-p-314.122139"
"cpu-p-314.122141"
"cpu-p-314.122142"
"cpu-p-314.122143"
"cpu-p-314.122144"
"cpu-p-314.122145"
"cpu-p-314.122146"
"cpu-p-314.122148"
"cpu-p-314.122150"
"cpu-p-314.122151"
"cpu-p-314.122152"
"cpu-p-314.122153"
"cpu-p-314.122154"
"cpu-p-314.122155"
"cpu-p-314.122156"
"cpu-p-314.122157"
"cpu-p-314.122158"
"cpu-p-315.155264"
"cpu-p-315.155265"
"cpu-p-315.155266"
"cpu-p-315.155267"
"cpu-p-315.155268"
"cpu-p-315.155269"
"cpu-p-315.155270"
"cpu-p-315.155271"
"cpu-p-315.155272"
"cpu-p-315.155273"
"cpu-p-315.155274"
"cpu-p-315.155275"
"cpu-p-315.155276"
"cpu-p-315.155277"
"cpu-p-315.155278"
"cpu-p-315.155279"
"cpu-p-315.155280"
"cpu-p-315.155281"
"cpu-p-315.155282"
"cpu-p-315.155283"
"cpu-p-315.155284"
"cpu-p-315.155285"
"cpu-p-315.155286"
"cpu-p-315.155287"
"cpu-p-315.155288"
"cpu-p-315.155289"
"cpu-p-315.155290"
"cpu-p-315.155291"
"cpu-p-315.155292"
"cpu-p-315.155293"
"cpu-p-315.155294"
"cpu-p-315.155295"
"cpu-p-315.155296"
"cpu-p-315.155297"
"cpu-p-315.155298"
"cpu-p-315.155299"
"cpu-p-315.155300"
"cpu-p-315.155301"
"cpu-p-315.155302"
"cpu-p-315.155303"
"cpu-p-315.155305"
"cpu-p-315.155306"
"cpu-p-315.155307"
"cpu-p-315.155308"
"cpu-p-315.155309"
"cpu-p-315.155310"
"cpu-p-315.155311"
"cpu-p-315.155312"
"cpu-p-315.155313"
"cpu-p-315.155314"
"cpu-p-315.155315"
"cpu-p-315.155316"
"cpu-p-315.155317"
"cpu-p-315.155318"
"cpu-p-315.155319"
"cpu-p-315.155320"
"cpu-p-316.130959"
"cpu-p-316.130960"
"cpu-p-316.130961"
"cpu-p-316.130962"
"cpu-p-316.130963"
"cpu-p-316.130964"
"cpu-p-316.130965"
"cpu-p-316.130966"
"cpu-p-316.130967"
"cpu-p-316.130968"
"cpu-p-316.130969"
"cpu-p-316.130970"
"cpu-p-316.130971"
"cpu-p-316.130972"
"cpu-p-316.130973"
"cpu-p-316.130974"
"cpu-p-316.130975"
"cpu-p-316.130976"
"cpu-p-316.130977"
"cpu-p-316.130978"
"cpu-p-316.130979"
"cpu-p-316.130980"
"cpu-p-316.130981"
"cpu-p-316.130982"
"cpu-p-316.130983"
"cpu-p-316.130984"
"cpu-p-316.130985"
"cpu-p-316.130986"
"cpu-p-316.130987"
"cpu-p-316.130988"
"cpu-p-316.130989"
"cpu-p-316.130990"
"cpu-p-316.130991"
"cpu-p-316.130992"
"cpu-p-316.130993"
"cpu-p-316.130994"
"cpu-p-316.130995"
"cpu-p-316.130996"
"cpu-p-316.130997"
"cpu-p-316.130998"
"cpu-p-316.130999"
"cpu-p-316.131000"
"cpu-p-316.131001"
"cpu-p-316.131002"
"cpu-p-316.131003"
"cpu-p-316.131004"
"cpu-p-316.131005"
"cpu-p-316.131006"
"cpu-p-316.131007"
"cpu-p-316.131008"
"cpu-p-316.131009"
"cpu-p-316.131010"
"cpu-p-316.131011"
"cpu-p-316.131012"
"cpu-p-316.131013"
"cpu-p-316.131014"
"cpu-p-317.127511"
"cpu-p-317.127512"
"cpu-p-317.127513"
"cpu-p-317.127514"
"cpu-p-317.127515"
"cpu-p-317.127516"
"cpu-p-317.127517"
"cpu-p-317.127518"
"cpu-p-317.127519"
"cpu-p-317.127520"
"cpu-p-317.127521"
"cpu-p-317.127522"
"cpu-p-317.127523"
"cpu-p-317.127524"
"cpu-p-317.127525"
"cpu-p-317.127526"
"cpu-p-317.127527"
"cpu-p-317.127528"
"cpu-p-317.127529"
"cpu-p-317.127530"
"cpu-p-317.127531"
"cpu-p-317.127532"
"cpu-p-317.127533"
"cpu-p-317.127534"
"cpu-p-317.127535"
"cpu-p-317.127536"
"cpu-p-317.127537"
"cpu-p-317.127538"
"cpu-p-317.127539"
"cpu-p-317.127540"
"cpu-p-317.127541"
"cpu-p-317.127542"
"cpu-p-317.127543"
"cpu-p-317.127544"
"cpu-p-317.127545"
"cpu-p-317.127546"
"cpu-p-317.127547"
"cpu-p-317.127548"
"cpu-p-317.127549"
"cpu-p-317.127550"
"cpu-p-317.127551"
"cpu-p-317.127552"
"cpu-p-317.127553"
"cpu-p-317.127554"
"cpu-p-317.127555"
"cpu-p-317.127557"
"cpu-p-317.127559"
"cpu-p-317.127560"
"cpu-p-317.127561"
"cpu-p-317.127562"
"cpu-p-317.127563"
"cpu-p-317.127564"
"cpu-p-317.127565"
"cpu-p-317.127566"
"cpu-p-317.127567"
"cpu-p-317.127568"
"cpu-p-318.133515"
"cpu-p-318.133516"
"cpu-p-318.133517"
"cpu-p-318.133518"
"cpu-p-318.133519"
"cpu-p-318.133520"
"cpu-p-318.133521"
"cpu-p-318.133522"
"cpu-p-318.133523"
"cpu-p-318.133524"
"cpu-p-318.133525"
"cpu-p-318.133526"
"cpu-p-318.133527"
"cpu-p-318.133528"
"cpu-p-318.133529"
"cpu-p-318.133530"
"cpu-p-318.133531"
"cpu-p-318.133532"
"cpu-p-318.133533"
"cpu-p-318.133534"
"cpu-p-318.133535"
"cpu-p-318.133537"
"cpu-p-318.133538"
"cpu-p-318.133539"
"cpu-p-318.133540"
"cpu-p-318.133541"
"cpu-p-318.133542"
"cpu-p-318.133543"
"cpu-p-318.133544"
"cpu-p-318.133545"
"cpu-p-318.133546"
"cpu-p-318.133547"
"cpu-p-318.133548"
"cpu-p-318.133549"
"cpu-p-318.133550"
"cpu-p-318.133551"
"cpu-p-318.133552"
"cpu-p-318.133553"
"cpu-p-318.133554"
"cpu-p-318.133555"
"cpu-p-318.133556"
"cpu-p-318.133557"
"cpu-p-318.133558"
"cpu-p-318.133559"
"cpu-p-318.133560"
"cpu-p-318.133561"
"cpu-p-318.133562"
"cpu-p-318.133563"
"cpu-p-318.133564"
"cpu-p-318.133565"
"cpu-p-318.133566"
"cpu-p-318.133567"
"cpu-p-318.133568"
"cpu-p-318.133569"
"cpu-p-318.133570"
"cpu-p-318.133571"
"cpu-p-319.124495"
"cpu-p-319.124496"
"cpu-p-319.124497"
"cpu-p-319.124498"
"cpu-p-319.124499"
"cpu-p-319.124500"
"cpu-p-319.124501"
"cpu-p-319.124502"
"cpu-p-319.124503"
"cpu-p-319.124504"
"cpu-p-319.124505"
"cpu-p-319.124507"
"cpu-p-319.124508"
"cpu-p-319.124509"
"cpu-p-319.124510"
"cpu-p-319.124511"
"cpu-p-319.124512"
"cpu-p-319.124513"
"cpu-p-319.124514"
"cpu-p-319.124515"
"cpu-p-319.124516"
"cpu-p-319.124517"
"cpu-p-319.124518"
"cpu-p-319.124519"
"cpu-p-319.124520"
"cpu-p-319.124521"
"cpu-p-319.124522"
"cpu-p-319.124523"
"cpu-p-319.124524"
"cpu-p-319.124525"
"cpu-p-319.124526"
"cpu-p-319.124527"
"cpu-p-319.124528"
"cpu-p-319.124529"
"cpu-p-319.124530"
"cpu-p-319.124531"
"cpu-p-319.124532"
"cpu-p-319.124533"
"cpu-p-319.124534"
"cpu-p-319.124535"
"cpu-p-319.124536"
"cpu-p-319.124537"
"cpu-p-319.124538"
"cpu-p-319.124539"
"cpu-p-319.124541"
"cpu-p-319.124542"
"cpu-p-319.124543"
"cpu-p-319.124544"
"cpu-p-319.124545"
"cpu-p-319.124546"
"cpu-p-319.124547"
"cpu-p-319.124548"
"cpu-p-319.124549"
"cpu-p-319.124550"
"cpu-p-319.124551"
"cpu-p-319.124552"
"cpu-p-320.130832"
"cpu-p-320.130833"
"cpu-p-320.130834"
"cpu-p-320.130835"
"cpu-p-320.130836"
"cpu-p-320.130837"
"cpu-p-320.130838"
"cpu-p-320.130839"
"cpu-p-320.130840"
"cpu-p-320.130841"
"cpu-p-320.130842"
"cpu-p-320.130843"
"cpu-p-320.130844"
"cpu-p-320.130845"
"cpu-p-320.130846"
"cpu-p-320.130847"
"cpu-p-320.130848"
"cpu-p-320.130849"
"cpu-p-320.130850"
"cpu-p-320.130851"
"cpu-p-320.130852"
"cpu-p-320.130854"
"cpu-p-320.130855"
"cpu-p-320.130856"
"cpu-p-320.130857"
"cpu-p-320.130858"
"cpu-p-320.130859"
"cpu-p-320.130860"
"cpu-p-320.130861"
"cpu-p-320.130862"
"cpu-p-320.130863"
"cpu-p-320.130864"
"cpu-p-320.130865"
"cpu-p-320.130866"
"cpu-p-320.130867"
"cpu-p-320.130868"
"cpu-p-320.130869"
"cpu-p-320.130870"
"cpu-p-320.130871"
"cpu-p-320.130872"
"cpu-p-320.130873"
"cpu-p-320.130874"
"cpu-p-320.130875"
"cpu-p-320.130876"
"cpu-p-320.130877"
"cpu-p-320.130879"
"cpu-p-320.130880"
"cpu-p-320.130881"
"cpu-p-320.130882"
"cpu-p-320.130883"
"cpu-p-320.130884"
"cpu-p-320.130886"
"cpu-p-320.130887"
"cpu-p-320.130889"
"cpu-p-320.130890"
"cpu-p-320.130891"
"cpu-p-321.205907"
"cpu-p-321.205908"
"cpu-p-321.205909"
"cpu-p-321.205910"
"cpu-p-321.205911"
"cpu-p-321.205912"
"cpu-p-321.205913"
"cpu-p-321.205914"
"cpu-p-321.205915"
"cpu-p-321.205916"
"cpu-p-321.205917"
"cpu-p-321.205918"
"cpu-p-321.205919"
"cpu-p-321.205920"
"cpu-p-321.205921"
"cpu-p-321.205922"
"cpu-p-321.205923"
"cpu-p-321.205924"
"cpu-p-321.205925"
"cpu-p-321.205926"
"cpu-p-321.205927"
"cpu-p-321.205928"
"cpu-p-321.205929"
"cpu-p-321.205930"
"cpu-p-321.205931"
"cpu-p-321.205932"
"cpu-p-321.205933"
"cpu-p-321.205934"
"cpu-p-321.205935"
"cpu-p-321.205936"
"cpu-p-321.205937"
"cpu-p-321.205938"
"cpu-p-321.205940"
"cpu-p-321.205941"
"cpu-p-321.205942"
"cpu-p-321.205943"
"cpu-p-321.205944"
"cpu-p-321.205945"
"cpu-p-321.205946"
"cpu-p-321.205947"
"cpu-p-321.205948"
"cpu-p-321.205949"
"cpu-p-321.205950"
"cpu-p-321.205951"
"cpu-p-321.205952"
"cpu-p-321.205953"
"cpu-p-321.205954"
"cpu-p-321.205955"
"cpu-p-321.205956"
"cpu-p-321.205957"
"cpu-p-321.205958"
"cpu-p-321.205959"
"cpu-p-321.205960"
"cpu-p-321.205961"
"cpu-p-321.205962"
"cpu-p-321.205963"
"cpu-p-322.199548"
"cpu-p-322.199549"
"cpu-p-322.199550"
"cpu-p-322.199551"
"cpu-p-322.199552"
"cpu-p-322.199553"
"cpu-p-322.199554"
"cpu-p-322.199555"
"cpu-p-322.199556"
"cpu-p-322.199557"
"cpu-p-322.199558"
"cpu-p-322.199559"
"cpu-p-322.199560"
"cpu-p-322.199561"
"cpu-p-322.199562"
"cpu-p-322.199563"
"cpu-p-322.199564"
"cpu-p-322.199565"
"cpu-p-322.199566"
"cpu-p-322.199567"
"cpu-p-322.199568"
"cpu-p-322.199569"
"cpu-p-322.199570"
"cpu-p-322.199571"
"cpu-p-322.199572"
"cpu-p-322.199573"
"cpu-p-322.199574"
"cpu-p-322.199575"
"cpu-p-322.199576"
"cpu-p-322.199577"
"cpu-p-322.199578"
"cpu-p-322.199579"
"cpu-p-322.199580"
"cpu-p-322.199581"
"cpu-p-322.199582"
"cpu-p-322.199583"
"cpu-p-322.199584"
"cpu-p-322.199585"
"cpu-p-322.199586"
"cpu-p-322.199587"
"cpu-p-322.199588"
"cpu-p-322.199589"
"cpu-p-322.199590"
"cpu-p-322.199591"
"cpu-p-322.199592"
"cpu-p-322.199593"
"cpu-p-322.199594"
"cpu-p-322.199595"
"cpu-p-322.199596"
"cpu-p-322.199597"
"cpu-p-322.199598"
"cpu-p-322.199599"
"cpu-p-322.199600"
"cpu-p-322.199601"
"cpu-p-322.199602"
"cpu-p-322.199603"
"cpu-p-323.203270"
"cpu-p-323.203271"
"cpu-p-323.203272"
"cpu-p-323.203273"
"cpu-p-323.203274"
"cpu-p-323.203275"
"cpu-p-323.203276"
"cpu-p-323.203277"
"cpu-p-323.203278"
"cpu-p-323.203279"
"cpu-p-323.203280"
"cpu-p-323.203281"
"cpu-p-323.203282"
"cpu-p-323.203283"
"cpu-p-323.203284"
"cpu-p-323.203285"
"cpu-p-323.203286"
"cpu-p-323.203288"
"cpu-p-323.203289"
"cpu-p-323.203290"
"cpu-p-323.203291"
"cpu-p-323.203292"
"cpu-p-323.203293"
"cpu-p-323.203294"
"cpu-p-323.203295"
"cpu-p-323.203296"
"cpu-p-323.203297"
"cpu-p-323.203298"
"cpu-p-323.203299"
"cpu-p-323.203300"
"cpu-p-323.203301"
"cpu-p-323.203302"
"cpu-p-323.203303"
"cpu-p-323.203305"
"cpu-p-323.203306"
"cpu-p-323.203307"
"cpu-p-323.203308"
"cpu-p-323.203309"
"cpu-p-323.203313"
"cpu-p-323.203314"
"cpu-p-323.203315"
"cpu-p-323.203316"
"cpu-p-323.203317"
"cpu-p-323.203318"
"cpu-p-323.203319"
"cpu-p-323.203320"
"cpu-p-323.203321"
"cpu-p-323.203322"
"cpu-p-323.203323"
"cpu-p-323.203324"
"cpu-p-323.203325"
"cpu-p-323.203326"
"cpu-p-323.203327"
"cpu-p-323.203328"
"cpu-p-323.203329"
"cpu-p-323.203330"
"cpu-p-324.179570"
"cpu-p-324.179571"
"cpu-p-324.179572"
"cpu-p-324.179573"
"cpu-p-324.179574"
"cpu-p-324.179575"
"cpu-p-324.179576"
"cpu-p-324.179577"
"cpu-p-324.179578"
"cpu-p-324.179579"
"cpu-p-324.179580"
"cpu-p-324.179581"
"cpu-p-324.179582"
"cpu-p-324.179583"
"cpu-p-324.179584"
"cpu-p-324.179585"
"cpu-p-324.179586"
"cpu-p-324.179587"
"cpu-p-324.179588"
"cpu-p-324.179589"
"cpu-p-324.179590"
"cpu-p-324.179591"
"cpu-p-324.179592"
"cpu-p-324.179593"
"cpu-p-324.179594"
"cpu-p-324.179595"
"cpu-p-324.179596"
"cpu-p-324.179597"
"cpu-p-324.179598"
"cpu-p-324.179599"
"cpu-p-324.179600"
"cpu-p-324.179601"
"cpu-p-324.179602"
"cpu-p-324.179603"
"cpu-p-324.179604"
"cpu-p-324.179605"
"cpu-p-324.179606"
"cpu-p-324.179607"
"cpu-p-324.179609"
"cpu-p-324.179610"
"cpu-p-324.179611"
"cpu-p-324.179612"
"cpu-p-324.179613"
"cpu-p-324.179614"
"cpu-p-324.179615"
"cpu-p-324.179616"
"cpu-p-324.179617"
"cpu-p-324.179618"
"cpu-p-324.179619"
"cpu-p-324.179620"
"cpu-p-324.179621"
"cpu-p-324.179622"
"cpu-p-324.179623"
"cpu-p-324.179624"
"cpu-p-324.179625"
"cpu-p-324.179626"
"cpu-p-325.109467"
"cpu-p-325.109468"
"cpu-p-325.109469"
"cpu-p-325.109470"
"cpu-p-325.109471"
"cpu-p-325.109472"
"cpu-p-325.109473"
"cpu-p-325.109474"
"cpu-p-325.109475"
"cpu-p-325.109476"
"cpu-p-325.109477"
"cpu-p-325.109478"
"cpu-p-325.109479"
"cpu-p-325.109480"
"cpu-p-325.109481"
"cpu-p-325.109482"
"cpu-p-325.109483"
"cpu-p-325.109484"
"cpu-p-325.109485"
"cpu-p-325.109486"
"cpu-p-325.109487"
"cpu-p-325.109488"
"cpu-p-325.109489"
"cpu-p-325.109490"
"cpu-p-325.109491"
"cpu-p-325.109492"
"cpu-p-325.109493"
"cpu-p-325.109494"
"cpu-p-325.109495"
"cpu-p-325.109496"
"cpu-p-325.109497"
"cpu-p-325.109498"
"cpu-p-325.109499"
"cpu-p-325.109500"
"cpu-p-325.109501"
"cpu-p-325.109502"
"cpu-p-325.109503"
"cpu-p-325.109504"
"cpu-p-325.109505"
"cpu-p-325.109506"
"cpu-p-325.109508"
"cpu-p-325.109509"
"cpu-p-325.109510"
"cpu-p-325.109511"
"cpu-p-325.109512"
"cpu-p-325.109513"
"cpu-p-325.109514"
"cpu-p-325.109515"
"cpu-p-325.109517"
"cpu-p-325.109519"
"cpu-p-325.109520"
"cpu-p-325.109521"
"cpu-p-325.109522"
"cpu-p-325.109523"
"cpu-p-325.109524"
"cpu-p-325.109525"
"cpu-p-326.72854"
"cpu-p-326.72855"
"cpu-p-326.72856"
"cpu-p-326.72857"
"cpu-p-326.72858"
"cpu-p-326.72859"
"cpu-p-326.72860"
"cpu-p-326.72861"
"cpu-p-326.72862"
"cpu-p-326.72863"
"cpu-p-326.72864"
"cpu-p-326.72865"
"cpu-p-326.72866"
"cpu-p-326.72867"
"cpu-p-326.72868"
"cpu-p-326.72869"
"cpu-p-326.72870"
"cpu-p-326.72871"
"cpu-p-326.72872"
"cpu-p-326.72873"
"cpu-p-326.72874"
"cpu-p-326.72875"
"cpu-p-326.72876"
"cpu-p-326.72877"
"cpu-p-326.72878"
"cpu-p-326.72879"
"cpu-p-326.72880"
"cpu-p-326.72881"
"cpu-p-326.72882"
"cpu-p-326.72883"
"cpu-p-326.72884"
"cpu-p-326.72885"
"cpu-p-326.72886"
"cpu-p-326.72887"
"cpu-p-326.72888"
"cpu-p-326.72889"
"cpu-p-326.72890"
"cpu-p-326.72891"
"cpu-p-326.72892"
"cpu-p-326.72893"
"cpu-p-326.72894"
"cpu-p-326.72895"
"cpu-p-326.72896"
"cpu-p-326.72897"
"cpu-p-326.72898"
"cpu-p-326.72899"
"cpu-p-326.72900"
"cpu-p-326.72901"
"cpu-p-326.72902"
"cpu-p-326.72903"
"cpu-p-326.72905"
"cpu-p-326.72907"
"cpu-p-326.72908"
"cpu-p-326.72909"
"cpu-p-326.72910"
"cpu-p-326.72911"
"cpu-p-327.102415"
"cpu-p-327.102416"
"cpu-p-327.102417"
"cpu-p-327.102418"
"cpu-p-327.102419"
"cpu-p-327.102420"
"cpu-p-327.102421"
"cpu-p-327.102422"
"cpu-p-327.102423"
"cpu-p-327.102424"
"cpu-p-327.102425"
"cpu-p-327.102426"
"cpu-p-327.102427"
"cpu-p-327.102428"
"cpu-p-327.102429"
"cpu-p-327.102430"
"cpu-p-327.102431"
"cpu-p-327.102432"
"cpu-p-327.102433"
"cpu-p-327.102434"
"cpu-p-327.102435"
"cpu-p-327.102436"
"cpu-p-327.102437"
"cpu-p-327.102438"
"cpu-p-327.102439"
"cpu-p-327.102440"
"cpu-p-327.102441"
"cpu-p-327.102442"
"cpu-p-327.102443"
"cpu-p-327.102444"
"cpu-p-327.102445"
"cpu-p-327.102446"
"cpu-p-327.102447"
"cpu-p-327.102448"
"cpu-p-327.102449"
"cpu-p-327.102450"
"cpu-p-327.102451"
"cpu-p-327.102452"
"cpu-p-327.102453"
"cpu-p-327.102454"
"cpu-p-327.102455"
"cpu-p-327.102456"
"cpu-p-327.102457"
"cpu-p-327.102458"
"cpu-p-327.102459"
"cpu-p-327.102460"
"cpu-p-327.102461"
"cpu-p-327.102462"
"cpu-p-327.102463"
"cpu-p-327.102464"
"cpu-p-327.102465"
"cpu-p-327.102466"
"cpu-p-327.102467"
"cpu-p-327.102468"
"cpu-p-327.102469"
"cpu-p-327.102470"
"cpu-p-328.92002"
"cpu-p-328.92003"
"cpu-p-328.92004"
"cpu-p-328.92005"
"cpu-p-328.92006"
"cpu-p-328.92007"
"cpu-p-328.92008"
"cpu-p-328.92009"
"cpu-p-328.92010"
"cpu-p-328.92011"
"cpu-p-328.92012"
"cpu-p-328.92013"
"cpu-p-328.92014"
"cpu-p-328.92015"
"cpu-p-328.92016"
"cpu-p-328.92017"
"cpu-p-328.92018"
"cpu-p-328.92019"
"cpu-p-328.92020"
"cpu-p-328.92021"
"cpu-p-328.92022"
"cpu-p-328.92023"
"cpu-p-328.92024"
"cpu-p-328.92025"
"cpu-p-328.92026"
"cpu-p-328.92027"
"cpu-p-328.92028"
"cpu-p-328.92029"
"cpu-p-328.92030"
"cpu-p-328.92031"
"cpu-p-328.92032"
"cpu-p-328.92033"
"cpu-p-328.92034"
"cpu-p-328.92036"
"cpu-p-328.92037"
"cpu-p-328.92038"
"cpu-p-328.92039"
"cpu-p-328.92040"
"cpu-p-328.92041"
"cpu-p-328.92042"
"cpu-p-328.92043"
"cpu-p-328.92044"
"cpu-p-328.92045"
"cpu-p-328.92046"
"cpu-p-328.92047"
"cpu-p-328.92048"
"cpu-p-328.92049"
"cpu-p-328.92050"
"cpu-p-328.92051"
"cpu-p-328.92052"
"cpu-p-328.92053"
"cpu-p-328.92054"
"cpu-p-328.92055"
"cpu-p-328.92056"
"cpu-p-328.92057"
"cpu-p-328.92058"
"cpu-p-329.111367"
"cpu-p-329.111368"
"cpu-p-329.111369"
"cpu-p-329.111370"
"cpu-p-329.111371"
"cpu-p-329.111372"
"cpu-p-329.111373"
"cpu-p-329.111374"
"cpu-p-329.111375"
"cpu-p-329.111376"
"cpu-p-329.111377"
"cpu-p-329.111378"
"cpu-p-329.111379"
"cpu-p-329.111380"
"cpu-p-329.111381"
"cpu-p-329.111382"
"cpu-p-329.111383"
"cpu-p-329.111384"
"cpu-p-329.111385"
"cpu-p-329.111386"
"cpu-p-329.111387"
"cpu-p-329.111388"
"cpu-p-329.111389"
"cpu-p-329.111390"
"cpu-p-329.111391"
"cpu-p-329.111392"
"cpu-p-329.111393"
"cpu-p-329.111394"
"cpu-p-329.111395"
"cpu-p-329.111396"
"cpu-p-329.111397"
"cpu-p-329.111398"
"cpu-p-329.111399"
"cpu-p-329.111400"
"cpu-p-329.111401"
"cpu-p-329.111402"
"cpu-p-329.111403"
"cpu-p-329.111404"
"cpu-p-329.111405"
"cpu-p-329.111407"
"cpu-p-329.111409"
"cpu-p-329.111410"
"cpu-p-329.111411"
"cpu-p-329.111412"
"cpu-p-329.111414"
"cpu-p-329.111415"
"cpu-p-329.111416"
"cpu-p-329.111418"
"cpu-p-329.111419"
"cpu-p-329.111420"
"cpu-p-329.111421"
"cpu-p-329.111422"
"cpu-p-329.111423"
"cpu-p-329.111424"
"cpu-p-329.111425"
"cpu-p-329.111426"
"cpu-p-330.107556"
"cpu-p-330.107557"
"cpu-p-330.107558"
"cpu-p-330.107559"
"cpu-p-330.107560"
"cpu-p-330.107561"
"cpu-p-330.107562"
"cpu-p-330.107563"
"cpu-p-330.107564"
"cpu-p-330.107565"
"cpu-p-330.107566"
"cpu-p-330.107567"
"cpu-p-330.107568"
"cpu-p-330.107569"
"cpu-p-330.107570"
"cpu-p-330.107571"
"cpu-p-330.107572"
"cpu-p-330.107573"
"cpu-p-330.107574"
"cpu-p-330.107575"
"cpu-p-330.107576"
"cpu-p-330.107577"
"cpu-p-330.107578"
"cpu-p-330.107579"
"cpu-p-330.107580"
"cpu-p-330.107581"
"cpu-p-330.107582"
"cpu-p-330.107583"
"cpu-p-330.107584"
"cpu-p-330.107585"
"cpu-p-330.107586"
"cpu-p-330.107587"
"cpu-p-330.107588"
"cpu-p-330.107589"
"cpu-p-330.107590"
"cpu-p-330.107591"
"cpu-p-330.107592"
"cpu-p-330.107593"
"cpu-p-330.107594"
"cpu-p-330.107595"
"cpu-p-330.107596"
"cpu-p-330.107597"
"cpu-p-330.107598"
"cpu-p-330.107599"
"cpu-p-330.107600"
"cpu-p-330.107601"
"cpu-p-330.107602"
"cpu-p-330.107603"
"cpu-p-330.107604"
"cpu-p-330.107605"
"cpu-p-330.107606"
"cpu-p-330.107607"
"cpu-p-330.107608"
"cpu-p-330.107609"
"cpu-p-330.107611"
"cpu-p-330.107612"
"cpu-p-331.97895"
"cpu-p-331.97896"
"cpu-p-331.97897"
"cpu-p-331.97898"
"cpu-p-331.97899"
"cpu-p-331.97900"
"cpu-p-331.97901"
"cpu-p-331.97902"
"cpu-p-331.97903"
"cpu-p-331.97904"
"cpu-p-331.97905"
"cpu-p-331.97906"
"cpu-p-331.97907"
"cpu-p-331.97908"
"cpu-p-331.97909"
"cpu-p-331.97910"
"cpu-p-331.97911"
"cpu-p-331.97912"
"cpu-p-331.97913"
"cpu-p-331.97914"
"cpu-p-331.97915"
"cpu-p-331.97916"
"cpu-p-331.97917"
"cpu-p-331.97918"
"cpu-p-331.97919"
"cpu-p-331.97920"
"cpu-p-331.97921"
"cpu-p-331.97922"
"cpu-p-331.97923"
"cpu-p-331.97924"
"cpu-p-331.97925"
"cpu-p-331.97926"
"cpu-p-331.97927"
"cpu-p-331.97928"
"cpu-p-331.97929"
"cpu-p-331.97930"
"cpu-p-331.97931"
"cpu-p-331.97932"
"cpu-p-331.97933"
"cpu-p-331.97934"
"cpu-p-331.97935"
"cpu-p-331.97936"
"cpu-p-331.97937"
"cpu-p-331.97938"
"cpu-p-331.97939"
"cpu-p-331.97940"
"cpu-p-331.97941"
"cpu-p-331.97942"
"cpu-p-331.97943"
"cpu-p-331.97944"
"cpu-p-331.97945"
"cpu-p-331.97946"
"cpu-p-331.97948"
"cpu-p-331.97950"
"cpu-p-331.97951"
"cpu-p-331.97952"
"cpu-p-332.107449"
"cpu-p-332.107450"
"cpu-p-332.107451"
"cpu-p-332.107452"
"cpu-p-332.107453"
"cpu-p-332.107454"
"cpu-p-332.107455"
"cpu-p-332.107456"
"cpu-p-332.107457"
"cpu-p-332.107458"
"cpu-p-332.107459"
"cpu-p-332.107460"
"cpu-p-332.107461"
"cpu-p-332.107462"
"cpu-p-332.107463"
"cpu-p-332.107464"
"cpu-p-332.107465"
"cpu-p-332.107466"
"cpu-p-332.107467"
"cpu-p-332.107468"
"cpu-p-332.107469"
"cpu-p-332.107470"
"cpu-p-332.107471"
"cpu-p-332.107472"
"cpu-p-332.107473"
"cpu-p-332.107474"
"cpu-p-332.107475"
"cpu-p-332.107476"
"cpu-p-332.107477"
"cpu-p-332.107478"
"cpu-p-332.107479"
"cpu-p-332.107480"
"cpu-p-332.107481"
"cpu-p-332.107482"
"cpu-p-332.107483"
"cpu-p-332.107485"
"cpu-p-332.107486"
"cpu-p-332.107487"
"cpu-p-332.107488"
"cpu-p-332.107489"
"cpu-p-332.107491"
"cpu-p-332.107492"
"cpu-p-332.107493"
"cpu-p-332.107494"
"cpu-p-332.107495"
"cpu-p-332.107496"
"cpu-p-332.107497"
"cpu-p-332.107498"
"cpu-p-332.107499"
"cpu-p-332.107500"
"cpu-p-332.107502"
"cpu-p-332.107504"
"cpu-p-332.107505"
"cpu-p-332.107506"
"cpu-p-332.107507"
"cpu-p-332.107508"
"cpu-p-333.118193"
"cpu-p-333.118194"
"cpu-p-333.118195"
"cpu-p-333.118196"
"cpu-p-333.118197"
"cpu-p-333.118198"
"cpu-p-333.118199"
"cpu-p-333.118200"
"cpu-p-333.118201"
"cpu-p-333.118202"
"cpu-p-333.118203"
"cpu-p-333.118204"
"cpu-p-333.118205"
"cpu-p-333.118206"
"cpu-p-333.118207"
"cpu-p-333.118208"
"cpu-p-333.118209"
"cpu-p-333.118210"
"cpu-p-333.118211"
"cpu-p-333.118212"
"cpu-p-333.118213"
"cpu-p-333.118214"
"cpu-p-333.118215"
"cpu-p-333.118216"
"cpu-p-333.118217"
"cpu-p-333.118218"
"cpu-p-333.118219"
"cpu-p-333.118220"
"cpu-p-333.118221"
"cpu-p-333.118222"
"cpu-p-333.118223"
"cpu-p-333.118224"
"cpu-p-333.118225"
"cpu-p-333.118227"
"cpu-p-333.118229"
"cpu-p-333.118230"
"cpu-p-333.118231"
"cpu-p-333.118232"
"cpu-p-333.118233"
"cpu-p-333.118234"
"cpu-p-333.118235"
"cpu-p-333.118236"
"cpu-p-333.118238"
"cpu-p-333.118239"
"cpu-p-333.118240"
"cpu-p-333.118241"
"cpu-p-333.118242"
"cpu-p-333.118243"
"cpu-p-333.118244"
"cpu-p-333.118245"
"cpu-p-333.118246"
"cpu-p-333.118247"
"cpu-p-333.118248"
"cpu-p-333.118249"
"cpu-p-333.118250"
"cpu-p-333.118251"
"cpu-p-334.106100"
"cpu-p-334.106101"
"cpu-p-334.106102"
"cpu-p-334.106103"
"cpu-p-334.106104"
"cpu-p-334.106105"
"cpu-p-334.106106"
"cpu-p-334.106107"
"cpu-p-334.106108"
"cpu-p-334.106109"
"cpu-p-334.106110"
"cpu-p-334.106111"
"cpu-p-334.106112"
"cpu-p-334.106113"
"cpu-p-334.106114"
"cpu-p-334.106115"
"cpu-p-334.106116"
"cpu-p-334.106117"
"cpu-p-334.106118"
"cpu-p-334.106119"
"cpu-p-334.106120"
"cpu-p-334.106121"
"cpu-p-334.106122"
"cpu-p-334.106123"
"cpu-p-334.106124"
"cpu-p-334.106125"
"cpu-p-334.106126"
"cpu-p-334.106127"
"cpu-p-334.106128"
"cpu-p-334.106129"
"cpu-p-334.106130"
"cpu-p-334.106131"
"cpu-p-334.106132"
"cpu-p-334.106133"
"cpu-p-334.106134"
"cpu-p-334.106135"
"cpu-p-334.106136"
"cpu-p-334.106137"
"cpu-p-334.106138"
"cpu-p-334.106139"
"cpu-p-334.106140"
"cpu-p-334.106141"
"cpu-p-334.106142"
"cpu-p-334.106143"
"cpu-p-334.106144"
"cpu-p-334.106146"
"cpu-p-334.106147"
"cpu-p-334.106148"
"cpu-p-334.106149"
"cpu-p-334.106150"
"cpu-p-334.106153"
"cpu-p-334.106155"
"cpu-p-334.106156"
"cpu-p-334.106157"
"cpu-p-334.106158"
"cpu-p-334.106159"
"cpu-p-335.114201"
"cpu-p-335.114202"
"cpu-p-335.114203"
"cpu-p-335.114204"
"cpu-p-335.114205"
"cpu-p-335.114206"
"cpu-p-335.114207"
"cpu-p-335.114208"
"cpu-p-335.114209"
"cpu-p-335.114210"
"cpu-p-335.114211"
"cpu-p-335.114212"
"cpu-p-335.114213"
"cpu-p-335.114214"
"cpu-p-335.114215"
"cpu-p-335.114216"
"cpu-p-335.114217"
"cpu-p-335.114218"
"cpu-p-335.114219"
"cpu-p-335.114220"
"cpu-p-335.114221"
"cpu-p-335.114222"
"cpu-p-335.114223"
"cpu-p-335.114225"
"cpu-p-335.114227"
"cpu-p-335.114228"
"cpu-p-335.114229"
"cpu-p-335.114230"
"cpu-p-335.114231"
"cpu-p-335.114232"
"cpu-p-335.114233"
"cpu-p-335.114234"
"cpu-p-335.114235"
"cpu-p-335.114236"
"cpu-p-335.114237"
"cpu-p-335.114238"
"cpu-p-335.114239"
"cpu-p-335.114240"
"cpu-p-335.114241"
"cpu-p-335.114242"
"cpu-p-335.114243"
"cpu-p-335.114244"
"cpu-p-335.114245"
"cpu-p-335.114246"
"cpu-p-335.114247"
"cpu-p-335.114248"
"cpu-p-335.114249"
"cpu-p-335.114250"
"cpu-p-335.114251"
"cpu-p-335.114252"
"cpu-p-335.114253"
"cpu-p-335.114254"
"cpu-p-335.114255"
"cpu-p-335.114256"
"cpu-p-335.114257"
"cpu-p-335.114258"
"cpu-p-336.107168"
"cpu-p-336.107169"
"cpu-p-336.107170"
"cpu-p-336.107171"
"cpu-p-336.107172"
"cpu-p-336.107173"
"cpu-p-336.107174"
"cpu-p-336.107175"
"cpu-p-336.107176"
"cpu-p-336.107177"
"cpu-p-336.107178"
"cpu-p-336.107179"
"cpu-p-336.107180"
"cpu-p-336.107181"
"cpu-p-336.107182"
"cpu-p-336.107183"
"cpu-p-336.107184"
"cpu-p-336.107185"
"cpu-p-336.107186"
"cpu-p-336.107187"
"cpu-p-336.107189"
"cpu-p-336.107190"
"cpu-p-336.107191"
"cpu-p-336.107192"
"cpu-p-336.107193"
"cpu-p-336.107194"
"cpu-p-336.107195"
"cpu-p-336.107196"
"cpu-p-336.107197"
"cpu-p-336.107198"
"cpu-p-336.107199"
"cpu-p-336.107200"
"cpu-p-336.107201"
"cpu-p-336.107202"
"cpu-p-336.107203"
"cpu-p-336.107204"
"cpu-p-336.107205"
"cpu-p-336.107206"
"cpu-p-336.107207"
"cpu-p-336.107208"
"cpu-p-336.107209"
"cpu-p-336.107210"
"cpu-p-336.107211"
"cpu-p-336.107212"
"cpu-p-336.107213"
"cpu-p-336.107214"
"cpu-p-336.107215"
"cpu-p-336.107216"
"cpu-p-336.107217"
"cpu-p-336.107218"
"cpu-p-336.107221"
"cpu-p-336.107222"
"cpu-p-336.107223"
"cpu-p-336.107224"
"cpu-p-336.107225"
"cpu-p-336.107226"
)

Pstream initialized with:
    floatTransfer      : 0
    nProcsSimpleSum    : 0
    commsType          : nonBlocking
    polling iterations : 0
sigFpe : Enabling floating point exception trapping (FOAM_SIGFPE).
fileModificationChecking : Monitoring run-time modified files using timeStampMaster (fileModificationSkew 10)
allowSystemOperations : Allowing user-supplied system call operations

// * * * * * * * * * * * * * * * * * * * * * * * * * * * * * * * * * * * * * //
Create time

Create mesh for time = 0

Read mesh in = 11.88 s

Overall mesh bounding box  : (-5 -4 0) (15 4 8)
Relative tolerance         : 1e-06
Absolute matching distance : 2.29783e-05

Reading refinement surfaces.
Read refinement surfaces in = 2.21 s

Reading refinement shells.
Refinement level 4 for all cells inside refinementBox
Read refinement shells in = 0 s

Setting refinement level of surface to be consistent with shells.
Checked shell refinement in = 1.47 s

Reading features.
Read edgeMesh motorBike.eMesh
    points      : 20665
    edges       : 20867
    boundingBox : (-0.241214 -0.337971 -4.232e-05) (1.75115 0.329368 1.21979)

Refinement level according to distance to "motorBike.eMesh" (20665 points, 20867 edges).
    level 6 for all cells within 0 metre.
Read features in = 0.12 s


Determining initial surface intersections
-----------------------------------------

Edge intersection testing:
    Number of edges             : 32256
    Number of edges to retest   : 32256
    Number of intersected edges : 26
Calculated surface intersections in = 7.55 s

Initial mesh : cells:10240  faces:32256  points:11849
Cells per refinement level:
    0	10240

Adding patches for surface regions
----------------------------------

Patch Type                Region                        
----- ----                ------                        
motorBike:

5     wall                motorBike_frt-fairing:001%1   
6     wall                motorBike_windshield:002%2    
7     wall                motorBike_rr-wh-rim:005%5     
8     wall                motorBike_rr-wh-rim:010%10    
9     wall                motorBike_fr-wh-rim:011%11    
10    wall                motorBike_fr-wh-brake-disk:012%12
11    wall                motorBike_frame:016-shadow%13 
12    wall                motorBike_rear-susp:014%14    
13    wall                motorBike_rear-susp:014-shadow%15
14    wall                motorBike_frame:016%16        
15    wall                motorBike_rr-wh-rim:005-shadow%17
16    wall                motorBike_rr-wh-chain-hub:022%22
17    wall                motorBike_rearseat%24         
18    wall                motorBike_frt-fairing%25      
19    wall                motorBike_windshield%26       
20    wall                motorBike_headlights%27       
21    wall                motorBike_driversseat%28      
22    wall                motorBike_rear-body%29        
23    wall                motorBike_fuel-tank%30        
24    wall                motorBike_exhaust%31          
25    wall                motorBike_rr-wh-rim%32        
26    wall                motorBike_fr-mud-guard%33     
27    wall                motorBike_fr-wh-rim%34        
28    wall                motorBike_fr-wh-brake-disk%35 
29    wall                motorBike_fr-brake-caliper%36 
30    wall                motorBike_fr-wh-tyre%37       
31    wall                motorBike_hbars%38            
32    wall                motorBike_fr-forks%39         
33    wall                motorBike_chain%40            
34    wall                motorBike_rr-wh-tyre%41       
35    wall                motorBike_square-dial%42      
36    wall                motorBike_round-dial%43       
37    wall                motorBike_dial-holder%44      
38    wall                motorBike_rear-susp%45        
39    wall                motorBike_rear-brake-lights%46
40    wall                motorBike_rear-light-bracket%47
41    wall                motorBike_frame%48            
42    wall                motorBike_rear-mud-guard%49   
43    wall                motorBike_rear-susp-spring-damp%50
44    wall                motorBike_fairing-inner-plate%51
45    wall                motorBike_clutch-housing%52   
46    wall                motorBike_radiator%53         
47    wall                motorBike_water-pipe%54       
48    wall                motorBike_water-pump%55       
49    wall                motorBike_engine%56           
50    wall                motorBike_rear-shock-link%57  
51    wall                motorBike_rear-brake-fluid-pot-bracket%58
52    wall                motorBike_rear-brake-fluid-pot%59
53    wall                motorBike_footpeg%60          
54    wall                motorBike_rr-wh-chain-hub%61  
55    wall                motorBike_rear-brake-caliper%62
56    wall                motorBike_rider-helmet%65     
57    wall                motorBike_rider-visor%66      
58    wall                motorBike_rider-boots%67      
59    wall                motorBike_rider-gloves%68     
60    wall                motorBike_rider-body%69       
61    wall                motorBike_frame:0%70          
62    wall                motorBike_frt-fairing:001-shadow%74
63    wall                motorBike_windshield-shadow%75
64    wall                motorBike_fr-mud-guard-shadow%81
65    wall                motorBike_fr-wh-brake-disk-shadow%83
66    wall                motorBike_rear-mud-guard-shadow%84
[1]  Foam::decompositionMethod::New 
[1] {
[1]     numberOfSubdomains 3136;
[1]     method          scotch;
[1]     simpleCoeffs
[1]     {
[1]         n               ( 4 1 1 );
[1]         delta           0.001;
[1]     }
[1]     hierarchicalCoeffs
[1]     {
[1]         n               ( 3 2 1 );
[1]         delta           0.001;
[1]         order           xyz;
[1]     }
[1]     manualCoeffs
[1]     {
[1]         dataFile        "cellDecomposition";
[1]     }
[1] }
[1] 
[1] Selecting decompositionMethod scotch
[2]  Foam::decompositionMethod::New 
[2] {
[2]     numberOfSubdomains 3136;
[2]     method          scotch;
[2]     simpleCoeffs
[2]     {
[2]         n               ( 4 1 1 );
[2]         delta           0.001;
[2]     }
[2]     hierarchicalCoeffs
[2]     {
[2]         n               ( 3 2 1 );
[2]         delta           0.001;
[2]         order           xyz;
[2]     }
[2]     manualCoeffs
[2]     {
[2]         dataFile        "cellDecomposition";
[2]     }
[2] }
[2] 
[2] Selecting decompositionMethod scotch
[3]  Foam::decompositionMethod::New 
[3] {
[3]     numberOfSubdomains 3136;
[3]     method          scotch;
[3]     simpleCoeffs
[3]     {
[3]         n               ( 4 1 1 );
[3]         delta           0.001;
[3]     }
[3]     hierarchicalCoeffs
[3]     {
[3]         n               ( 3 2 1 );
[3]         delta           0.001;
[3]         order           xyz;
[3]     }
[3]     manualCoeffs
[3]     {
[3]         dataFile        "cellDecomposition";
[3]     }
[3] }
[3] 
[3] Selecting decompositionMethod scotch
[4]  Foam::decompositionMethod::New 
[4] {
[4]     numberOfSubdomains 3136;
[4]     method          scotch;
[4]     simpleCoeffs
[4]     {
[4]         n               ( 4 1 1 );
[4]         delta           0.001;
[4]     }
[4]     hierarchicalCoeffs
[4]     {
[4]         n               ( 3 2 1 );
[4]         delta           0.001;
[4]         order           xyz;
[4]     }
[4]     manualCoeffs
[4]     {
[4]         dataFile        "cellDecomposition";
[4]     }
[4] }
[4] 
[4] Selecting decompositionMethod scotch
[5]  Foam::decompositionMethod::New 
[5] {
[5]     numberOfSubdomains 3136;
[5]     method          scotch;
[5]     simpleCoeffs
[5]     {
[5]         n               ( 4 1 1 );
[5]         delta           0.001;
[5]     }
[5]     hierarchicalCoeffs
[5]     {
[5]         n               ( 3 2 1 );
[5]         delta           0.001;
[5]         order           xyz;
[5]     }
[5]     manualCoeffs
[5]     {
[5]         dataFile        "cellDecomposition";
[5]     }
[5] }
[5] 
[5] Selecting decompositionMethod scotch
[6]  Foam::decompositionMethod::New 
[6] {
[6]     numberOfSubdomains 3136;
[6]     method          scotch;
[6]     simpleCoeffs
[6]     {
[6]         n               ( 4 1 1 );
[6]         delta           0.001;
[6]     }
[6]     hierarchicalCoeffs
[6]     {
[6]         n               ( 3 2 1 );
[6]         delta           0.001;
[6]         order           xyz;
[6]     }
[6]     manualCoeffs
[6]     {
[6]         dataFile        "cellDecomposition";
[6]     }
[6] }
[6] 
[6] Selecting decompositionMethod scotch
[7]  Foam::decompositionMethod::New 
[7] {
[7]     numberOfSubdomains 3136;
[7]     method          scotch;
[7]     simpleCoeffs
[7]     {
[7]         n               ( 4 1 1 );
[7]         delta           0.001;
[7]     }
[7]     hierarchicalCoeffs
[7]     {
[7]         n               ( 3 2 1 );
[7]         delta           0.001;
[7]         order           xyz;
[7]     }
[7]     manualCoeffs
[7]     {
[7]         dataFile        "cellDecomposition";
[7]     }
[7] }
[7] 
[7] Selecting decompositionMethod scotch
[8]  Foam::decompositionMethod::New 
[8] {
[8]     numberOfSubdomains 3136;
[8]     method          scotch;
[8]     simpleCoeffs
[8]     {
[8]         n               ( 4 1 1 );
[8]         delta           0.001;
[8]     }
[8]     hierarchicalCoeffs
[8]     {
[8]         n               ( 3 2 1 );
[8]         delta           0.001;
[8]         order           xyz;
[8]     }
[8]     manualCoeffs
[8]     {
[8]         dataFile        "cellDecomposition";
[8]     }
[8] }
[8] 
[8] Selecting decompositionMethod scotch
[9]  Foam::decompositionMethod::New 
[9] {
[9]     numberOfSubdomains 3136;
[9]     method          scotch;
[9]     simpleCoeffs
[9]     {
[9]         n               ( 4 1 1 );
[9]         delta           0.001;
[9]     }
[9]     hierarchicalCoeffs
[9]     {
[9]         n               ( 3 2 1 );
[9]         delta           0.001;
[9]         order           xyz;
[9]     }
[9]     manualCoeffs
[9]     {
[9]         dataFile        "cellDecomposition";
[9]     }
[9] }
[9] 
[9] Selecting decompositionMethod scotch
[11]  Foam::decompositionMethod::New 
[11] {
[11]     numberOfSubdomains 3136;
[11]     method          scotch;
[11]     simpleCoeffs
[11]     {
[11]         n               ( 4 1 1 );
[11]         delta           0.001;
[11]     }
[11]     hierarchicalCoeffs
[11]     {
[11]         n               ( 3 2 1 );
[11]         delta           0.001;
[11]         order           xyz;
[11]     }
[11]     manualCoeffs
[11]     {
[11]         dataFile        "cellDecomposition";
[11]     }
[11] }
[11] 
[11] Selecting decompositionMethod scotch
[12]  Foam::decompositionMethod::New 
[12] {
[12]     numberOfSubdomains 3136;
[12]     method          scotch;
[12]     simpleCoeffs
[12]     {
[12]         n               ( 4 1 1 );
[12]         delta           0.001;
[12]     }
[12]     hierarchicalCoeffs
[12]     {
[12]         n               ( 3 2 1 );
[12]         delta           0.001;
[12]         order           xyz;
[12]     }
[12]     manualCoeffs
[12]     {
[12]         dataFile        "cellDecomposition";
[12]     }
[12] }
[12] 
[12] Selecting decompositionMethod scotch
[13]  Foam::decompositionMethod::New 
[13] {
[13]     numberOfSubdomains 3136;
[13]     method          scotch;
[13]     simpleCoeffs
[13]     {
[13]         n               ( 4 1 1 );
[13]         delta           0.001;
[13]     }
[13]     hierarchicalCoeffs
[13]     {
[13]         n               ( 3 2 1 );
[13]         delta           0.001;
[13]         order           xyz;
[13]     }
[13]     manualCoeffs
[13]     {
[13]         dataFile        "cellDecomposition";
[13]     }
[13] }
[13] 
[13] Selecting decompositionMethod scotch
[14]  Foam::decompositionMethod::New 
[14] {
[14]     numberOfSubdomains 3136;
[14]     method          scotch;
[14]     simpleCoeffs
[14]     {
[14]         n               ( 4 1 1 );
[14]         delta           0.001;
[14]     }
[14]     hierarchicalCoeffs
[14]     {
[14]         n               ( 3 2 1 );
[14]         delta           0.001;
[14]         order           xyz;
[14]     }
[14]     manualCoeffs
[14]     {
[14]         dataFile        "cellDecomposition";
[14]     }
[14] }
[14] 
[14] Selecting decompositionMethod scotch
[15]  Foam::decompositionMethod::New 
[15] {
[15]     numberOfSubdomains 3136;
[15]     method          scotch;
[15]     simpleCoeffs
[15]     {
[15]         n               ( 4 1 1 );
[15]         delta           0.001;
[15]     }
[15]     hierarchicalCoeffs
[15]     {
[15]         n               ( 3 2 1 );
[15]         delta           0.001;
[15]         order           xyz;
[15]     }
[15]     manualCoeffs
[15]     {
[15]         dataFile        "cellDecomposition";
[15]     }
[15] }
[15] 
[15] Selecting decompositionMethod scotch
[16]  Foam::decompositionMethod::New 
[16] {
[16]     numberOfSubdomains 3136;
[16]     method          scotch;
[16]     simpleCoeffs
[16]     {
[16]         n               ( 4 1 1 );
[16]         delta           0.001;
[16]     }
[16]     hierarchicalCoeffs
[16]     {
[16]         n               ( 3 2 1 );
[16]         delta           0.001;
[16]         order           xyz;
[16]     }
[16]     manualCoeffs
[16]     {
[16]         dataFile        "cellDecomposition";
[16]     }
[16] }
[16] 
[16] Selecting decompositionMethod scotch
[17]  Foam::decompositionMethod::New 
[17] {
[17]     numberOfSubdomains 3136;
[17]     method          scotch;
[17]     simpleCoeffs
[17]     {
[17]         n               ( 4 1 1 );
[17]         delta           0.001;
[17]     }
[17]     hierarchicalCoeffs
[17]     {
[17]         n               ( 3 2 1 );
[17]         delta           0.001;
[17]         order           xyz;
[17]     }
[17]     manualCoeffs
[17]     {
[17]         dataFile        "cellDecomposition";
[17]     }
[17] }
[17] 
[17] Selecting decompositionMethod scotch
[18]  Foam::decompositionMethod::New 
[18] {
[18]     numberOfSubdomains 3136;
[18]     method          scotch;
[18]     simpleCoeffs
[18]     {
[18]         n               ( 4 1 1 );
[18]         delta           0.001;
[18]     }
[18]     hierarchicalCoeffs
[18]     {
[18]         n               ( 3 2 1 );
[18]         delta           0.001;
[18]         order           xyz;
[18]     }
[18]     manualCoeffs
[18]     {
[18]         dataFile        "cellDecomposition";
[18]     }
[18] }
[18] 
[18] Selecting decompositionMethod scotch
[19]  Foam::decompositionMethod::New 
[19] {
[19]     numberOfSubdomains 3136;
[19]     method          scotch;
[19]     simpleCoeffs
[19]     {
[19]         n               ( 4 1 1 );
[19]         delta           0.001;
[19]     }
[19]     hierarchicalCoeffs
[19]     {
[19]         n               ( 3 2 1 );
[19]         delta           0.001;
[19]         order           xyz;
[19]     }
[19]     manualCoeffs
[19]     {
[19]         dataFile        "cellDecomposition";
[19]     }
[19] }
[19] 
[19] Selecting decompositionMethod scotch
[20]  Foam::decompositionMethod::New 
[20] {
[20]     numberOfSubdomains 3136;
[20]     method          scotch;
[20]     simpleCoeffs
[20]     {
[20]         n               ( 4 1 1 );
[20]         delta           0.001;
[20]     }
[20]     hierarchicalCoeffs
[20]     {
[20]         n               ( 3 2 1 );
[20]         delta           0.001;
[20]         order           xyz;
[20]     }
[20]     manualCoeffs
[20]     {
[20]         dataFile        "cellDecomposition";
[20]     }
[20] }
[20] 
[20] Selecting decompositionMethod scotch
[21]  Foam::decompositionMethod::New 
[21] {
[21]     numberOfSubdomains 3136;
[21]     method          scotch;
[21]     simpleCoeffs
[21]     {
[21]         n               ( 4 1 1 );
[21]         delta           0.001;
[21]     }
[21]     hierarchicalCoeffs
[21]     {
[21]         n               ( 3 2 1 );
[21]         delta           0.001;
[21]         order           xyz;
[21]     }
[21]     manualCoeffs
[21]     {
[21]         dataFile        "cellDecomposition";
[21]     }
[21] }
[21] 
[21] Selecting decompositionMethod scotch
[22]  Foam::decompositionMethod::New 
[22] {
[22]     numberOfSubdomains 3136;
[22]     method          scotch;
[22]     simpleCoeffs
[22]     {
[22]         n               ( 4 1 1 );
[22]         delta           0.001;
[22]     }
[22]     hierarchicalCoeffs
[22]     {
[22]         n               ( 3 2 1 );
[22]         delta           0.001;
[22]         order           xyz;
[22]     }
[22]     manualCoeffs
[22]     {
[22]         dataFile        "cellDecomposition";
[22]     }
[22] }
[22] 
[22] Selecting decompositionMethod scotch
[23]  Foam::decompositionMethod::New 
[23] {
[23]     numberOfSubdomains 3136;
[23]     method          scotch;
[23]     simpleCoeffs
[23]     {
[23]         n               ( 4 1 1 );
[23]         delta           0.001;
[23]     }
[23]     hierarchicalCoeffs
[23]     {
[23]         n               ( 3 2 1 );
[23]         delta           0.001;
[23]         order           xyz;
[23]     }
[23]     manualCoeffs
[23]     {
[23]         dataFile        "cellDecomposition";
[23]     }
[23] }
[23] 
[23] Selecting decompositionMethod scotch
[24]  Foam::decompositionMethod::New 
[24] {
[24]     numberOfSubdomains 3136;
[24]     method          scotch;
[24]     simpleCoeffs
[24]     {
[24]         n               ( 4 1 1 );
[24]         delta           0.001;
[24]     }
[24]     hierarchicalCoeffs
[24]     {
[24]         n               ( 3 2 1 );
[24]         delta           0.001;
[24]         order           xyz;
[24]     }
[24]     manualCoeffs
[24]     {
[24]         dataFile        "cellDecomposition";
[24]     }
[24] }
[24] 
[24] Selecting decompositionMethod scotch
[25]  Foam::decompositionMethod::New 
[25] {
[25]     numberOfSubdomains 3136;
[25]     method          scotch;
[25]     simpleCoeffs
[25]     {
[25]         n               ( 4 1 1 );
[25]         delta           0.001;
[25]     }
[25]     hierarchicalCoeffs
[25]     {
[25]         n               ( 3 2 1 );
[25]         delta           0.001;
[25]         order           xyz;
[25]     }
[25]     manualCoeffs
[25]     {
[25]         dataFile        "cellDecomposition";
[25]     }
[25] }
[25] 
[25] Selecting decompositionMethod scotch
[26]  Foam::decompositionMethod::New 
[26] {
[26]     numberOfSubdomains 3136;
[26]     method          scotch;
[26]     simpleCoeffs
[26]     {
[26]         n               ( 4 1 1 );
[26]         delta           0.001;
[26]     }
[26]     hierarchicalCoeffs
[26]     {
[26]         n               ( 3 2 1 );
[26]         delta           0.001;
[26]         order           xyz;
[26]     }
[26]     manualCoeffs
[26]     {
[26]         dataFile        "cellDecomposition";
[26]     }
[26] }
[26] 
[26] Selecting decompositionMethod scotch
[27]  Foam::decompositionMethod::New 
[27] {
[27]     numberOfSubdomains 3136;
[27]     method          scotch;
[27]     simpleCoeffs
[27]     {
[27]         n               ( 4 1 1 );
[27]         delta           0.001;
[27]     }
[27]     hierarchicalCoeffs
[27]     {
[27]         n               ( 3 2 1 );
[27]         delta           0.001;
[27]         order           xyz;
[27]     }
[27]     manualCoeffs
[27]     {
[27]         dataFile        "cellDecomposition";
[27]     }
[27] }
[27] 
[27] Selecting decompositionMethod scotch
[28]  Foam::decompositionMethod::New 
[28] {
[28]     numberOfSubdomains 3136;
[28]     method          scotch;
[28]     simpleCoeffs
[28]     {
[28]         n               ( 4 1 1 );
[28]         delta           0.001;
[28]     }
[28]     hierarchicalCoeffs
[28]     {
[28]         n               ( 3 2 1 );
[28]         delta           0.001;
[28]         order           xyz;
[28]     }
[28]     manualCoeffs
[28]     {
[28]         dataFile        "cellDecomposition";
[28]     }
[28] }
[28] 
[28] Selecting decompositionMethod scotch
[29]  Foam::decompositionMethod::New 
[29] {
[29]     numberOfSubdomains 3136;
[29]     method          scotch;
[29]     simpleCoeffs
[29]     {
[29]         n               ( 4 1 1 );
[29]         delta           0.001;
[29]     }
[29]     hierarchicalCoeffs
[29]     {
[29]         n               ( 3 2 1 );
[29]         delta           0.001;
[29]         order           xyz;
[29]     }
[29]     manualCoeffs
[29]     {
[29]         dataFile        "cellDecomposition";
[29]     }
[29] }
[29] 
[29] Selecting decompositionMethod scotch
[30]  Foam::decompositionMethod::New 
[30] {
[30]     numberOfSubdomains 3136;
[30]     method          scotch;
[30]     simpleCoeffs
[30]     {
[30]         n               ( 4 1 1 );
[30]         delta           0.001;
[30]     }
[...]
    faces with concavity > 80  degrees                     : 0
    faces with skewness > 4   (internal) or 20  (boundary) : 0
    faces with interpolation weights (0..1)  < 0.02        : 0
    faces with volume ratio of neighbour cells < 0.01      : 0
    faces with face twist < 0.02                           : 0
    faces on cells with determinant < 0.001                : 0
displacementMedialAxis : Successfully moved mesh
displacementMedialAxis : Finished moving mesh ...
truncateDisplacement : Unextruded 1 faces due to non-consecutive vertices being extruded.
truncateDisplacement : Unextruded 0 faces due to stringed edges with inconsistent extrusion.
truncateDisplacement : Unextruded 0 faces due to non-consecutive vertices being extruded.
truncateDisplacement : Unextruded 0 faces due to stringed edges with inconsistent extrusion.

Setting up information for layer truncation ...

Checking mesh with layer ...
Checking faces in error :
    non-orthogonality > 65  degrees                        : 2
    faces with face pyramid volume < 1e-13                 : 0
    faces with face-decomposition tet quality < 1e-15      : 1
    faces with concavity > 80  degrees                     : 0
    faces with skewness > 4   (internal) or 20  (boundary) : 0
    faces with interpolation weights (0..1)  < 0.02        : 0
    faces with volume ratio of neighbour cells < 0.01      : 0
    faces with face twist < 0.02                           : 1
    faces on cells with determinant < 0.001                : 0
Detected 4 illegal faces (concave, zero area or negative cell pyramid volume)
Extruding 143685 out of 183377 faces (78.355%). Removed extrusion at 3 faces.
Added 143688 out of 183377 cells (78.3566%).


Layer addition iteration 23
--------------------------

Determining displacement for added points according to pointNormal ...
Detected 0 points with point normal pointing through faces.
Reset displacement at 0 points to average of surrounding points.

displacementMedialAxis : Smoothing using Medial Axis ...
displacementMedialAxis : Reducing layer thickness at 522 nodes where thickness to medial axis distance is large 
displacementMedialAxis : Removing isolated regions ...
displacementMedialAxis : Number of isolated points extrusion stopped : 8
displacementMedialAxis : Smoothing field ...
    Iteration 0   residual 4.63092e-05
displacementMedialAxis : Moving mesh ...
displacementMedialAxis : Iteration 0
Moving mesh using displacement scaling : min:1  max:1
Checking faces in error :
    non-orthogonality > 65  degrees                        : 1
    faces with face pyramid volume < 1e-13                 : 0
    faces with face-decomposition tet quality < 1e-15      : 43
    faces with concavity > 80  degrees                     : 0
    faces with skewness > 4   (internal) or 20  (boundary) : 0
    faces with interpolation weights (0..1)  < 0.02        : 0
    faces with volume ratio of neighbour cells < 0.01      : 0
    faces with face twist < 0.02                           : 0
    faces on cells with determinant < 0.001                : 0
displacementMedialAxis : Iteration 1
Moving mesh using displacement scaling : min:0.75  max:1
Checking faces in error :
    non-orthogonality > 65  degrees                        : 0
    faces with face pyramid volume < 1e-13                 : 0
    faces with face-decomposition tet quality < 1e-15      : 9
    faces with concavity > 80  degrees                     : 0
    faces with skewness > 4   (internal) or 20  (boundary) : 0
    faces with interpolation weights (0..1)  < 0.02        : 0
    faces with volume ratio of neighbour cells < 0.01      : 0
    faces with face twist < 0.02                           : 0
    faces on cells with determinant < 0.001                : 0
displacementMedialAxis : Iteration 2
Moving mesh using displacement scaling : min:0.5625  max:1
Checking faces in error :
    non-orthogonality > 65  degrees                        : 0
    faces with face pyramid volume < 1e-13                 : 0
    faces with face-decomposition tet quality < 1e-15      : 5
    faces with concavity > 80  degrees                     : 0
    faces with skewness > 4   (internal) or 20  (boundary) : 0
    faces with interpolation weights (0..1)  < 0.02        : 0
    faces with volume ratio of neighbour cells < 0.01      : 0
    faces with face twist < 0.02                           : 0
    faces on cells with determinant < 0.001                : 0
displacementMedialAxis : Iteration 3
displacementMedialAxis : Displacement scaling for error reduction set to 0.
Moving mesh using displacement scaling : min:0.421875  max:1
Checking faces in error :
    non-orthogonality > 65  degrees                        : 0
    faces with face pyramid volume < 1e-13                 : 0
    faces with face-decomposition tet quality < 1e-15      : 1
    faces with concavity > 80  degrees                     : 0
    faces with skewness > 4   (internal) or 20  (boundary) : 0
    faces with interpolation weights (0..1)  < 0.02        : 0
    faces with volume ratio of neighbour cells < 0.01      : 0
    faces with face twist < 0.02                           : 0
    faces on cells with determinant < 0.001                : 0
displacementMedialAxis : Iteration 4
Moving mesh using displacement scaling : min:0  max:1
Checking faces in error :
    non-orthogonality > 65  degrees                        : 0
    faces with face pyramid volume < 1e-13                 : 0
    faces with face-decomposition tet quality < 1e-15      : 0
    faces with concavity > 80  degrees                     : 0
    faces with skewness > 4   (internal) or 20  (boundary) : 0
    faces with interpolation weights (0..1)  < 0.02        : 0
    faces with volume ratio of neighbour cells < 0.01      : 0
    faces with face twist < 0.02                           : 0
    faces on cells with determinant < 0.001                : 0
displacementMedialAxis : Successfully moved mesh
displacementMedialAxis : Finished moving mesh ...
truncateDisplacement : Unextruded 0 faces due to non-consecutive vertices being extruded.
truncateDisplacement : Unextruded 0 faces due to stringed edges with inconsistent extrusion.

Setting up information for layer truncation ...

Checking mesh with layer ...
Checking faces in error :
    non-orthogonality > 65  degrees                        : 1
    faces with face pyramid volume < 1e-13                 : 0
    faces with face-decomposition tet quality < 1e-15      : 0
    faces with concavity > 80  degrees                     : 0
    faces with skewness > 4   (internal) or 20  (boundary) : 0
    faces with interpolation weights (0..1)  < 0.02        : 0
    faces with volume ratio of neighbour cells < 0.01      : 0
    faces with face twist < 0.02                           : 0
    faces on cells with determinant < 0.001                : 0
Detected 1 illegal faces (concave, zero area or negative cell pyramid volume)
Extruding 143674 out of 183377 faces (78.349%). Removed extrusion at 1 faces.
Added 143675 out of 183377 cells (78.3495%).


Layer addition iteration 24
--------------------------

Determining displacement for added points according to pointNormal ...
Detected 0 points with point normal pointing through faces.
Reset displacement at 0 points to average of surrounding points.

displacementMedialAxis : Smoothing using Medial Axis ...
displacementMedialAxis : Reducing layer thickness at 522 nodes where thickness to medial axis distance is large 
displacementMedialAxis : Removing isolated regions ...
displacementMedialAxis : Number of isolated points extrusion stopped : 0
displacementMedialAxis : Smoothing field ...
    Iteration 0   residual 4.63081e-05
displacementMedialAxis : Moving mesh ...
displacementMedialAxis : Iteration 0
Moving mesh using displacement scaling : min:1  max:1
Checking faces in error :
    non-orthogonality > 65  degrees                        : 1
    faces with face pyramid volume < 1e-13                 : 0
    faces with face-decomposition tet quality < 1e-15      : 43
    faces with concavity > 80  degrees                     : 0
    faces with skewness > 4   (internal) or 20  (boundary) : 0
    faces with interpolation weights (0..1)  < 0.02        : 0
    faces with volume ratio of neighbour cells < 0.01      : 0
    faces with face twist < 0.02                           : 0
    faces on cells with determinant < 0.001                : 0
displacementMedialAxis : Iteration 1
Moving mesh using displacement scaling : min:0.75  max:1
Checking faces in error :
    non-orthogonality > 65  degrees                        : 0
    faces with face pyramid volume < 1e-13                 : 0
    faces with face-decomposition tet quality < 1e-15      : 9
    faces with concavity > 80  degrees                     : 0
    faces with skewness > 4   (internal) or 20  (boundary) : 0
    faces with interpolation weights (0..1)  < 0.02        : 0
    faces with volume ratio of neighbour cells < 0.01      : 0
    faces with face twist < 0.02                           : 0
    faces on cells with determinant < 0.001                : 0
displacementMedialAxis : Iteration 2
Moving mesh using displacement scaling : min:0.5625  max:1
Checking faces in error :
    non-orthogonality > 65  degrees                        : 0
    faces with face pyramid volume < 1e-13                 : 0
    faces with face-decomposition tet quality < 1e-15      : 5
    faces with concavity > 80  degrees                     : 0
    faces with skewness > 4   (internal) or 20  (boundary) : 0
    faces with interpolation weights (0..1)  < 0.02        : 0
    faces with volume ratio of neighbour cells < 0.01      : 0
    faces with face twist < 0.02                           : 0
    faces on cells with determinant < 0.001                : 0
displacementMedialAxis : Iteration 3
displacementMedialAxis : Displacement scaling for error reduction set to 0.
Moving mesh using displacement scaling : min:0.421875  max:1
Checking faces in error :
    non-orthogonality > 65  degrees                        : 0
    faces with face pyramid volume < 1e-13                 : 0
    faces with face-decomposition tet quality < 1e-15      : 1
    faces with concavity > 80  degrees                     : 0
    faces with skewness > 4   (internal) or 20  (boundary) : 0
    faces with interpolation weights (0..1)  < 0.02        : 0
    faces with volume ratio of neighbour cells < 0.01      : 0
    faces with face twist < 0.02                           : 0
    faces on cells with determinant < 0.001                : 0
displacementMedialAxis : Iteration 4
Moving mesh using displacement scaling : min:0  max:1
Checking faces in error :
    non-orthogonality > 65  degrees                        : 0
    faces with face pyramid volume < 1e-13                 : 0
    faces with face-decomposition tet quality < 1e-15      : 0
    faces with concavity > 80  degrees                     : 0
    faces with skewness > 4   (internal) or 20  (boundary) : 0
    faces with interpolation weights (0..1)  < 0.02        : 0
    faces with volume ratio of neighbour cells < 0.01      : 0
    faces with face twist < 0.02                           : 0
    faces on cells with determinant < 0.001                : 0
displacementMedialAxis : Successfully moved mesh
displacementMedialAxis : Finished moving mesh ...
truncateDisplacement : Unextruded 0 faces due to non-consecutive vertices being extruded.
truncateDisplacement : Unextruded 0 faces due to stringed edges with inconsistent extrusion.

Setting up information for layer truncation ...

Checking mesh with layer ...
Checking faces in error :
    non-orthogonality > 65  degrees                        : 0
    faces with face pyramid volume < 1e-13                 : 0
    faces with face-decomposition tet quality < 1e-15      : 0
    faces with concavity > 80  degrees                     : 0
    faces with skewness > 4   (internal) or 20  (boundary) : 0
    faces with interpolation weights (0..1)  < 0.02        : 0
    faces with volume ratio of neighbour cells < 0.01      : 0
    faces with face twist < 0.02                           : 0
    faces on cells with determinant < 0.001                : 0
Detected 0 illegal faces (concave, zero area or negative cell pyramid volume)
Extruding 143673 out of 183377 faces (78.3484%). Removed extrusion at 0 faces.
Added 143673 out of 183377 cells (78.3484%).
Edge intersection testing:
    Number of edges             : 5930772
    Number of edges to retest   : 0
    Number of intersected edges : 293492

Doing final balancing
---------------------

Writing 143673 added cells to cellSet addedCells
Writing 0 faces inside added layer to faceSet layerFaces

Writing fields with layer information:
    nSurfaceLayers    : actual number of layers
    thickness         : overall layer thickness
    thicknessFraction : overall layer thickness (fraction of desired thickness)


patch                                            faces    layers   overall thickness
                                                                   [m]       [%]
-----                                            -----    ------   ---       ---
lowerWall                                        15834    0.993    0.0145    96.3    
motorBike_frt-fairing:001%1                      21772    0.747    0.00133   56.8    
motorBike_windshield:002%2                       178      0.989    0.00215   91.8    
motorBike_rr-wh-rim:005%5                        571      0.858    0.00104   44.3    
motorBike_rr-wh-rim:010%10                       1375     0.172    0.000275  11.8    
motorBike_fr-wh-rim:011%11                       1787     0.544    0.000588  25.1    
motorBike_fr-wh-brake-disk:012%12                256      0.996    0.00102   43.5    
motorBike_frame:016-shadow%13                    430      0.46     0.000385  16.4    
motorBike_rear-susp:014%14                       3625     0.781    0.00107   45.8    
motorBike_rear-susp:014-shadow%15                2155     0.749    0.00106   45.2    
motorBike_frame:016%16                           240      0.408    0.00034   14.6    
motorBike_rr-wh-rim:005-shadow%17                318      0.824    0.00107   45.6    
motorBike_rr-wh-chain-hub:022%22                 459      0.529    0.000466  20      
motorBike_rearseat%24                            1369     0.879    0.00174   68.1    
motorBike_frt-fairing%25                         2219     0.874    0.00147   62.1    
motorBike_windshield%26                          1489     0.731    0.0013    55.3    
motorBike_headlights%27                          591      0.976    0.00213   90.7    
motorBike_driversseat%28                         1609     0.796    0.00124   52.7    
motorBike_rear-body%29                           7432     0.882    0.00161   66.5    
motorBike_fuel-tank%30                           3254     0.918    0.00191   78.6    
motorBike_exhaust%31                             8467     0.72     0.00137   54.8    
motorBike_rr-wh-rim%32                           4393     0.877    0.00147   58.7    
motorBike_fr-mud-guard%33                        3166     0.585    0.000793  33.9    
motorBike_fr-wh-rim%34                           2205     0.934    0.0016    68.4    
motorBike_fr-wh-brake-disk%35                    1670     0.775    0.000762  32.5    
motorBike_fr-brake-caliper%36                    578      0.223    0.000156  6.67    
motorBike_fr-wh-tyre%37                          5042     0.732    0.00135   57.8    
motorBike_hbars%38                               2033     0.226    0.000226  9.68    
motorBike_fr-forks%39                            4375     0.728    0.00133   56.7    
motorBike_chain%40                               1798     0.11     7.7e-05   3.29    
motorBike_rr-wh-tyre%41                          4565     0.795    0.00173   59      
motorBike_square-dial%42                         20       1        0.00192   81.9    
motorBike_round-dial%43                          45       0.978    0.00101   43.3    
motorBike_dial-holder%44                         342      0.728    0.000683  29.4    
motorBike_rear-susp%45                           7096     0.775    0.000943  40.3    
motorBike_rear-brake-lights%46                   200      0.505    0.000436  18.9    
motorBike_rear-light-bracket%47                  639      0.828    0.00116   49.6    
motorBike_frame%48                               7650     0.793    0.00133   56.5    
motorBike_rear-mud-guard%49                      2580     0.694    0.00113   48.2    
motorBike_rear-susp-spring-damp%50               455      0.558    0.000473  20.3    
motorBike_fairing-inner-plate%51                 1571     0.796    0.00126   50.8    
motorBike_clutch-housing%52                      3837     0.963    0.00176   74.4    
motorBike_radiator%53                            432      0.134    6.94e-05  2.96    
motorBike_water-pipe%54                          326      0        0         0       
motorBike_water-pump%55                          263      0.384    0.00033   14.3    
motorBike_engine%56                              8704     0.9      0.00153   64.2    
motorBike_rear-shock-link%57                     103      0        0         0       
motorBike_rear-brake-fluid-pot-bracket%58        188      0.745    0.000699  30.1    
motorBike_rear-brake-fluid-pot%59                201      0.547    0.00031   13.3    
motorBike_footpeg%60                             346      0.234    0.000117  5.03    
motorBike_rr-wh-chain-hub%61                     488      0.732    0.000647  27.6    
motorBike_rear-brake-caliper%62                  573      0.36     0.000277  11.9    
motorBike_rider-helmet%65                        1814     0.953    0.00231   79.4    
motorBike_rider-visor%66                         543      1        0.00231   96.7    
motorBike_rider-boots%67                         3757     0.962    0.00199   84.4    
motorBike_rider-gloves%68                        1209     0.404    0.0007    29.9    
motorBike_rider-body%69                          14228    0.934    0.0022    81      
motorBike_frame:0%70                             140      0.671    0.00105   44.7    
motorBike_frt-fairing:001-shadow%74              13789    0.723    0.00131   55.8    
motorBike_windshield-shadow%75                   1036     0.693    0.00128   54.7    
motorBike_fr-mud-guard-shadow%81                 2013     0.551    0.000758  32.4    
motorBike_fr-wh-brake-disk-shadow%83             994      0.796    0.000814  34.7    
motorBike_rear-mud-guard-shadow%84               1641     0.67     0.00112   47.8    
motorBike_rear-susp-spring-damp-shadow%85        264      0.538    0.000478  20.5    
motorBike_radiator-shadow%86                     254      0.142    7.14e-05  3.05    
motorBike_rear-shock-link-shadow%87              58       0        0         0       
motorBike_rear-brake-fluid-pot-bracket-shadow%88 68       0.632    0.000472  20.3    
motorBike_rr-wh-chain-hub-shadow%89              255      0.702    0.000661  28.2    

Layer mesh : cells:1910685  faces:5930772  points:2132049
Cells per refinement level:
    0	9547
    1	4920
    2	16074
    3	48288
    4	991368
    5	127448
    6	713040
Writing mesh to time constant
Wrote mesh in = 952.03 s.
Layers added in = 952.03 s.
Checking final mesh ...
Checking faces in error :
    non-orthogonality > 65  degrees                        : 0
    faces with face pyramid volume < 1e-13                 : 0
    faces with face-decomposition tet quality < 1e-15      : 0
    faces with concavity > 80  degrees                     : 0
    faces with skewness > 4   (internal) or 20  (boundary) : 0
    faces with interpolation weights (0..1)  < 0.02        : 0
    faces with volume ratio of neighbour cells < 0.01      : 0
    faces with face twist < 0.02                           : 0
    faces on cells with determinant < 0.001                : 0
Finished meshing without any errors
Finished meshing in = 2160.44 s.
End

Finalising parallel run
