Cleaning /rds/user/hpcbras1/hpc-work/csd3/cclake-roce-gcc9-ompi3-ucx/openfoam/Openfoam_Mbike_csd3_cclake_roce_gcc9_ompi3_ucx_3136_56 case
Running surfaceFeatureExtract on /rds/user/hpcbras1/hpc-work/csd3/cclake-roce-gcc9-ompi3-ucx/openfoam/Openfoam_Mbike_csd3_cclake_roce_gcc9_ompi3_ucx_3136_56
Running blockMesh on /rds/user/hpcbras1/hpc-work/csd3/cclake-roce-gcc9-ompi3-ucx/openfoam/Openfoam_Mbike_csd3_cclake_roce_gcc9_ompi3_ucx_3136_56
Running decomposePar on /rds/user/hpcbras1/hpc-work/csd3/cclake-roce-gcc9-ompi3-ucx/openfoam/Openfoam_Mbike_csd3_cclake_roce_gcc9_ompi3_ucx_3136_56
Running snappyHexMesh in parallel on /rds/user/hpcbras1/hpc-work/csd3/cclake-roce-gcc9-ompi3-ucx/openfoam/Openfoam_Mbike_csd3_cclake_roce_gcc9_ompi3_ucx_3136_56 using 3136 processes
/*---------------------------------------------------------------------------*\
  =========                 |
  \\      /  F ield         | OpenFOAM: The Open Source CFD Toolbox
   \\    /   O peration     | Website:  https://openfoam.org
    \\  /    A nd           | Version:  7
     \\/     M anipulation  |
\*---------------------------------------------------------------------------*/
Build  : 7
Exec   : /home/hpcbras1/spack/opt/spack/linux-scientific7-skylake_avx512/gcc-9.1.0/openfoam-org-7-dahapwszurcwmfsxldhpukzh3tv4odmy/platforms/linux64GccDPInt32-spack/bin/simpleFoam -parallel
Date   : Oct 14 2020
Time   : 19:23:40
Host   : "cpu-p-281"
PID    : 109167
I/O    : uncollated
Case   : /rds/user/hpcbras1/hpc-work/csd3/cclake-roce-gcc9-ompi3-ucx/openfoam/Openfoam_Mbike_csd3_cclake_roce_gcc9_ompi3_ucx_3136_56
nProcs : 3136
Slaves : 
3135
(
"cpu-p-281.109168"
"cpu-p-281.109169"
"cpu-p-281.109170"
"cpu-p-281.109171"
"cpu-p-281.109172"
"cpu-p-281.109173"
"cpu-p-281.109174"
"cpu-p-281.109175"
"cpu-p-281.109176"
"cpu-p-281.109177"
"cpu-p-281.109178"
"cpu-p-281.109179"
"cpu-p-281.109180"
"cpu-p-281.109181"
"cpu-p-281.109182"
"cpu-p-281.109183"
"cpu-p-281.109184"
"cpu-p-281.109185"
"cpu-p-281.109186"
"cpu-p-281.109187"
"cpu-p-281.109188"
"cpu-p-281.109189"
"cpu-p-281.109190"
"cpu-p-281.109191"
"cpu-p-281.109192"
"cpu-p-281.109193"
"cpu-p-281.109194"
"cpu-p-281.109195"
"cpu-p-281.109196"
"cpu-p-281.109197"
"cpu-p-281.109198"
"cpu-p-281.109199"
"cpu-p-281.109200"
"cpu-p-281.109201"
"cpu-p-281.109202"
"cpu-p-281.109203"
"cpu-p-281.109204"
"cpu-p-281.109205"
"cpu-p-281.109206"
"cpu-p-281.109207"
"cpu-p-281.109208"
"cpu-p-281.109209"
"cpu-p-281.109210"
"cpu-p-281.109211"
"cpu-p-281.109212"
"cpu-p-281.109213"
"cpu-p-281.109214"
"cpu-p-281.109215"
"cpu-p-281.109216"
"cpu-p-281.109217"
"cpu-p-281.109218"
"cpu-p-281.109219"
"cpu-p-281.109220"
"cpu-p-281.109221"
"cpu-p-281.109222"
"cpu-p-282.187648"
"cpu-p-282.187649"
"cpu-p-282.187650"
"cpu-p-282.187651"
"cpu-p-282.187652"
"cpu-p-282.187653"
"cpu-p-282.187654"
"cpu-p-282.187655"
"cpu-p-282.187656"
"cpu-p-282.187657"
"cpu-p-282.187658"
"cpu-p-282.187659"
"cpu-p-282.187660"
"cpu-p-282.187661"
"cpu-p-282.187662"
"cpu-p-282.187663"
"cpu-p-282.187664"
"cpu-p-282.187665"
"cpu-p-282.187666"
"cpu-p-282.187667"
"cpu-p-282.187668"
"cpu-p-282.187669"
"cpu-p-282.187670"
"cpu-p-282.187671"
"cpu-p-282.187672"
"cpu-p-282.187673"
"cpu-p-282.187674"
"cpu-p-282.187675"
"cpu-p-282.187676"
"cpu-p-282.187677"
"cpu-p-282.187678"
"cpu-p-282.187679"
"cpu-p-282.187680"
"cpu-p-282.187681"
"cpu-p-282.187682"
"cpu-p-282.187683"
"cpu-p-282.187684"
"cpu-p-282.187685"
"cpu-p-282.187686"
"cpu-p-282.187687"
"cpu-p-282.187688"
"cpu-p-282.187689"
"cpu-p-282.187690"
"cpu-p-282.187691"
"cpu-p-282.187692"
"cpu-p-282.187693"
"cpu-p-282.187694"
"cpu-p-282.187695"
"cpu-p-282.187696"
"cpu-p-282.187697"
"cpu-p-282.187698"
"cpu-p-282.187699"
"cpu-p-282.187700"
"cpu-p-282.187701"
"cpu-p-282.187702"
"cpu-p-282.187703"
"cpu-p-283.57031"
"cpu-p-283.57032"
"cpu-p-283.57033"
"cpu-p-283.57034"
"cpu-p-283.57035"
"cpu-p-283.57036"
"cpu-p-283.57037"
"cpu-p-283.57038"
"cpu-p-283.57039"
"cpu-p-283.57040"
"cpu-p-283.57041"
"cpu-p-283.57042"
"cpu-p-283.57043"
"cpu-p-283.57044"
"cpu-p-283.57045"
"cpu-p-283.57046"
"cpu-p-283.57047"
"cpu-p-283.57048"
"cpu-p-283.57049"
"cpu-p-283.57050"
"cpu-p-283.57051"
"cpu-p-283.57052"
"cpu-p-283.57053"
"cpu-p-283.57054"
"cpu-p-283.57055"
"cpu-p-283.57056"
"cpu-p-283.57057"
"cpu-p-283.57058"
"cpu-p-283.57059"
"cpu-p-283.57060"
"cpu-p-283.57061"
"cpu-p-283.57062"
"cpu-p-283.57063"
"cpu-p-283.57064"
"cpu-p-283.57065"
"cpu-p-283.57066"
"cpu-p-283.57067"
"cpu-p-283.57068"
"cpu-p-283.57069"
"cpu-p-283.57070"
"cpu-p-283.57071"
"cpu-p-283.57072"
"cpu-p-283.57073"
"cpu-p-283.57074"
"cpu-p-283.57075"
"cpu-p-283.57076"
"cpu-p-283.57077"
"cpu-p-283.57078"
"cpu-p-283.57079"
"cpu-p-283.57080"
"cpu-p-283.57081"
"cpu-p-283.57082"
"cpu-p-283.57083"
"cpu-p-283.57084"
"cpu-p-283.57085"
"cpu-p-283.57086"
"cpu-p-284.102718"
"cpu-p-284.102719"
"cpu-p-284.102720"
"cpu-p-284.102721"
"cpu-p-284.102722"
"cpu-p-284.102723"
"cpu-p-284.102724"
"cpu-p-284.102725"
"cpu-p-284.102726"
"cpu-p-284.102727"
"cpu-p-284.102728"
"cpu-p-284.102729"
"cpu-p-284.102730"
"cpu-p-284.102731"
"cpu-p-284.102732"
"cpu-p-284.102733"
"cpu-p-284.102734"
"cpu-p-284.102735"
"cpu-p-284.102736"
"cpu-p-284.102737"
"cpu-p-284.102738"
"cpu-p-284.102739"
"cpu-p-284.102740"
"cpu-p-284.102741"
"cpu-p-284.102742"
"cpu-p-284.102743"
"cpu-p-284.102744"
"cpu-p-284.102745"
"cpu-p-284.102746"
"cpu-p-284.102747"
"cpu-p-284.102748"
"cpu-p-284.102749"
"cpu-p-284.102750"
"cpu-p-284.102751"
"cpu-p-284.102752"
"cpu-p-284.102753"
"cpu-p-284.102754"
"cpu-p-284.102755"
"cpu-p-284.102756"
"cpu-p-284.102757"
"cpu-p-284.102758"
"cpu-p-284.102759"
"cpu-p-284.102760"
"cpu-p-284.102761"
"cpu-p-284.102762"
"cpu-p-284.102763"
"cpu-p-284.102764"
"cpu-p-284.102765"
"cpu-p-284.102766"
"cpu-p-284.102767"
"cpu-p-284.102768"
"cpu-p-284.102769"
"cpu-p-284.102770"
"cpu-p-284.102771"
"cpu-p-284.102772"
"cpu-p-284.102773"
"cpu-p-285.250086"
"cpu-p-285.250087"
"cpu-p-285.250088"
"cpu-p-285.250089"
"cpu-p-285.250090"
"cpu-p-285.250091"
"cpu-p-285.250092"
"cpu-p-285.250093"
"cpu-p-285.250094"
"cpu-p-285.250095"
"cpu-p-285.250096"
"cpu-p-285.250097"
"cpu-p-285.250098"
"cpu-p-285.250099"
"cpu-p-285.250100"
"cpu-p-285.250101"
"cpu-p-285.250102"
"cpu-p-285.250103"
"cpu-p-285.250104"
"cpu-p-285.250105"
"cpu-p-285.250106"
"cpu-p-285.250107"
"cpu-p-285.250108"
"cpu-p-285.250109"
"cpu-p-285.250110"
"cpu-p-285.250111"
"cpu-p-285.250112"
"cpu-p-285.250113"
"cpu-p-285.250114"
"cpu-p-285.250115"
"cpu-p-285.250116"
"cpu-p-285.250117"
"cpu-p-285.250118"
"cpu-p-285.250119"
"cpu-p-285.250120"
"cpu-p-285.250121"
"cpu-p-285.250122"
"cpu-p-285.250123"
"cpu-p-285.250124"
"cpu-p-285.250125"
"cpu-p-285.250126"
"cpu-p-285.250127"
"cpu-p-285.250128"
"cpu-p-285.250129"
"cpu-p-285.250130"
"cpu-p-285.250131"
"cpu-p-285.250132"
"cpu-p-285.250133"
"cpu-p-285.250134"
"cpu-p-285.250135"
"cpu-p-285.250136"
"cpu-p-285.250137"
"cpu-p-285.250138"
"cpu-p-285.250139"
"cpu-p-285.250140"
"cpu-p-285.250141"
"cpu-p-286.99243"
"cpu-p-286.99244"
"cpu-p-286.99245"
"cpu-p-286.99246"
"cpu-p-286.99247"
"cpu-p-286.99248"
"cpu-p-286.99249"
"cpu-p-286.99250"
"cpu-p-286.99251"
"cpu-p-286.99252"
"cpu-p-286.99253"
"cpu-p-286.99254"
"cpu-p-286.99255"
"cpu-p-286.99256"
"cpu-p-286.99257"
"cpu-p-286.99258"
"cpu-p-286.99259"
"cpu-p-286.99260"
"cpu-p-286.99261"
"cpu-p-286.99262"
"cpu-p-286.99263"
"cpu-p-286.99264"
"cpu-p-286.99265"
"cpu-p-286.99266"
"cpu-p-286.99267"
"cpu-p-286.99268"
"cpu-p-286.99269"
"cpu-p-286.99270"
"cpu-p-286.99271"
"cpu-p-286.99272"
"cpu-p-286.99273"
"cpu-p-286.99274"
"cpu-p-286.99275"
"cpu-p-286.99276"
"cpu-p-286.99277"
"cpu-p-286.99278"
"cpu-p-286.99279"
"cpu-p-286.99280"
"cpu-p-286.99281"
"cpu-p-286.99282"
"cpu-p-286.99283"
"cpu-p-286.99284"
"cpu-p-286.99285"
"cpu-p-286.99286"
"cpu-p-286.99287"
"cpu-p-286.99288"
"cpu-p-286.99289"
"cpu-p-286.99290"
"cpu-p-286.99291"
"cpu-p-286.99292"
"cpu-p-286.99293"
"cpu-p-286.99294"
"cpu-p-286.99295"
"cpu-p-286.99296"
"cpu-p-286.99297"
"cpu-p-286.99298"
"cpu-p-287.22990"
"cpu-p-287.22991"
"cpu-p-287.22992"
"cpu-p-287.22993"
"cpu-p-287.22994"
"cpu-p-287.22995"
"cpu-p-287.22996"
"cpu-p-287.22997"
"cpu-p-287.22998"
"cpu-p-287.22999"
"cpu-p-287.23000"
"cpu-p-287.23001"
"cpu-p-287.23002"
"cpu-p-287.23003"
"cpu-p-287.23004"
"cpu-p-287.23005"
"cpu-p-287.23006"
"cpu-p-287.23007"
"cpu-p-287.23008"
"cpu-p-287.23009"
"cpu-p-287.23010"
"cpu-p-287.23011"
"cpu-p-287.23012"
"cpu-p-287.23013"
"cpu-p-287.23014"
"cpu-p-287.23015"
"cpu-p-287.23016"
"cpu-p-287.23017"
"cpu-p-287.23018"
"cpu-p-287.23019"
"cpu-p-287.23020"
"cpu-p-287.23021"
"cpu-p-287.23022"
"cpu-p-287.23023"
"cpu-p-287.23024"
"cpu-p-287.23025"
"cpu-p-287.23026"
"cpu-p-287.23027"
"cpu-p-287.23028"
"cpu-p-287.23029"
"cpu-p-287.23030"
"cpu-p-287.23031"
"cpu-p-287.23032"
"cpu-p-287.23033"
"cpu-p-287.23034"
"cpu-p-287.23035"
"cpu-p-287.23036"
"cpu-p-287.23037"
"cpu-p-287.23038"
"cpu-p-287.23039"
"cpu-p-287.23040"
"cpu-p-287.23041"
"cpu-p-287.23042"
"cpu-p-287.23043"
"cpu-p-287.23044"
"cpu-p-287.23045"
"cpu-p-288.61276"
"cpu-p-288.61277"
"cpu-p-288.61278"
"cpu-p-288.61279"
"cpu-p-288.61280"
"cpu-p-288.61281"
"cpu-p-288.61282"
"cpu-p-288.61283"
"cpu-p-288.61284"
"cpu-p-288.61285"
"cpu-p-288.61286"
"cpu-p-288.61287"
"cpu-p-288.61288"
"cpu-p-288.61289"
"cpu-p-288.61290"
"cpu-p-288.61291"
"cpu-p-288.61292"
"cpu-p-288.61293"
"cpu-p-288.61294"
"cpu-p-288.61295"
"cpu-p-288.61296"
"cpu-p-288.61297"
"cpu-p-288.61298"
"cpu-p-288.61299"
"cpu-p-288.61300"
"cpu-p-288.61301"
"cpu-p-288.61302"
"cpu-p-288.61303"
"cpu-p-288.61304"
"cpu-p-288.61305"
"cpu-p-288.61306"
"cpu-p-288.61307"
"cpu-p-288.61308"
"cpu-p-288.61309"
"cpu-p-288.61310"
"cpu-p-288.61311"
"cpu-p-288.61312"
"cpu-p-288.61313"
"cpu-p-288.61314"
"cpu-p-288.61315"
"cpu-p-288.61316"
"cpu-p-288.61317"
"cpu-p-288.61318"
"cpu-p-288.61319"
"cpu-p-288.61320"
"cpu-p-288.61321"
"cpu-p-288.61322"
"cpu-p-288.61323"
"cpu-p-288.61324"
"cpu-p-288.61325"
"cpu-p-288.61326"
"cpu-p-288.61327"
"cpu-p-288.61328"
"cpu-p-288.61329"
"cpu-p-288.61330"
"cpu-p-288.61331"
"cpu-p-289.75161"
"cpu-p-289.75162"
"cpu-p-289.75163"
"cpu-p-289.75164"
"cpu-p-289.75165"
"cpu-p-289.75166"
"cpu-p-289.75167"
"cpu-p-289.75168"
"cpu-p-289.75169"
"cpu-p-289.75170"
"cpu-p-289.75171"
"cpu-p-289.75172"
"cpu-p-289.75173"
"cpu-p-289.75174"
"cpu-p-289.75175"
"cpu-p-289.75176"
"cpu-p-289.75177"
"cpu-p-289.75178"
"cpu-p-289.75179"
"cpu-p-289.75180"
"cpu-p-289.75181"
"cpu-p-289.75182"
"cpu-p-289.75183"
"cpu-p-289.75184"
"cpu-p-289.75185"
"cpu-p-289.75186"
"cpu-p-289.75187"
"cpu-p-289.75188"
"cpu-p-289.75189"
"cpu-p-289.75190"
"cpu-p-289.75191"
"cpu-p-289.75192"
"cpu-p-289.75193"
"cpu-p-289.75194"
"cpu-p-289.75195"
"cpu-p-289.75196"
"cpu-p-289.75197"
"cpu-p-289.75198"
"cpu-p-289.75199"
"cpu-p-289.75200"
"cpu-p-289.75201"
"cpu-p-289.75202"
"cpu-p-289.75203"
"cpu-p-289.75204"
"cpu-p-289.75205"
"cpu-p-289.75206"
"cpu-p-289.75207"
"cpu-p-289.75208"
"cpu-p-289.75209"
"cpu-p-289.75210"
"cpu-p-289.75211"
"cpu-p-289.75212"
"cpu-p-289.75213"
"cpu-p-289.75214"
"cpu-p-289.75215"
"cpu-p-289.75216"
"cpu-p-290.8893"
"cpu-p-290.8894"
"cpu-p-290.8895"
"cpu-p-290.8896"
"cpu-p-290.8897"
"cpu-p-290.8898"
"cpu-p-290.8899"
"cpu-p-290.8900"
"cpu-p-290.8901"
"cpu-p-290.8902"
"cpu-p-290.8903"
"cpu-p-290.8904"
"cpu-p-290.8905"
"cpu-p-290.8906"
"cpu-p-290.8907"
"cpu-p-290.8908"
"cpu-p-290.8909"
"cpu-p-290.8910"
"cpu-p-290.8911"
"cpu-p-290.8912"
"cpu-p-290.8913"
"cpu-p-290.8914"
"cpu-p-290.8915"
"cpu-p-290.8916"
"cpu-p-290.8917"
"cpu-p-290.8918"
"cpu-p-290.8919"
"cpu-p-290.8920"
"cpu-p-290.8921"
"cpu-p-290.8922"
"cpu-p-290.8923"
"cpu-p-290.8924"
"cpu-p-290.8925"
"cpu-p-290.8926"
"cpu-p-290.8927"
"cpu-p-290.8928"
"cpu-p-290.8929"
"cpu-p-290.8930"
"cpu-p-290.8931"
"cpu-p-290.8932"
"cpu-p-290.8933"
"cpu-p-290.8934"
"cpu-p-290.8935"
"cpu-p-290.8936"
"cpu-p-290.8937"
"cpu-p-290.8938"
"cpu-p-290.8939"
"cpu-p-290.8940"
"cpu-p-290.8941"
"cpu-p-290.8942"
"cpu-p-290.8943"
"cpu-p-290.8944"
"cpu-p-290.8945"
"cpu-p-290.8946"
"cpu-p-290.8947"
"cpu-p-290.8948"
"cpu-p-291.192492"
"cpu-p-291.192493"
"cpu-p-291.192494"
"cpu-p-291.192495"
"cpu-p-291.192496"
"cpu-p-291.192497"
"cpu-p-291.192498"
"cpu-p-291.192499"
"cpu-p-291.192500"
"cpu-p-291.192501"
"cpu-p-291.192502"
"cpu-p-291.192503"
"cpu-p-291.192504"
"cpu-p-291.192505"
"cpu-p-291.192506"
"cpu-p-291.192507"
"cpu-p-291.192508"
"cpu-p-291.192509"
"cpu-p-291.192510"
"cpu-p-291.192511"
"cpu-p-291.192512"
"cpu-p-291.192513"
"cpu-p-291.192514"
"cpu-p-291.192515"
"cpu-p-291.192516"
"cpu-p-291.192517"
"cpu-p-291.192518"
"cpu-p-291.192519"
"cpu-p-291.192520"
"cpu-p-291.192521"
"cpu-p-291.192522"
"cpu-p-291.192523"
"cpu-p-291.192524"
"cpu-p-291.192525"
"cpu-p-291.192526"
"cpu-p-291.192527"
"cpu-p-291.192528"
"cpu-p-291.192529"
"cpu-p-291.192530"
"cpu-p-291.192531"
"cpu-p-291.192532"
"cpu-p-291.192533"
"cpu-p-291.192534"
"cpu-p-291.192535"
"cpu-p-291.192536"
"cpu-p-291.192537"
"cpu-p-291.192538"
"cpu-p-291.192539"
"cpu-p-291.192540"
"cpu-p-291.192541"
"cpu-p-291.192542"
"cpu-p-291.192543"
"cpu-p-291.192544"
"cpu-p-291.192545"
"cpu-p-291.192546"
"cpu-p-291.192547"
"cpu-p-292.7893"
"cpu-p-292.7894"
"cpu-p-292.7895"
"cpu-p-292.7896"
"cpu-p-292.7897"
"cpu-p-292.7898"
"cpu-p-292.7899"
"cpu-p-292.7900"
"cpu-p-292.7901"
"cpu-p-292.7902"
"cpu-p-292.7903"
"cpu-p-292.7904"
"cpu-p-292.7905"
"cpu-p-292.7906"
"cpu-p-292.7907"
"cpu-p-292.7908"
"cpu-p-292.7909"
"cpu-p-292.7910"
"cpu-p-292.7911"
"cpu-p-292.7912"
"cpu-p-292.7913"
"cpu-p-292.7914"
"cpu-p-292.7915"
"cpu-p-292.7916"
"cpu-p-292.7917"
"cpu-p-292.7918"
"cpu-p-292.7919"
"cpu-p-292.7920"
"cpu-p-292.7921"
"cpu-p-292.7922"
"cpu-p-292.7923"
"cpu-p-292.7924"
"cpu-p-292.7925"
"cpu-p-292.7926"
"cpu-p-292.7927"
"cpu-p-292.7928"
"cpu-p-292.7929"
"cpu-p-292.7930"
"cpu-p-292.7931"
"cpu-p-292.7932"
"cpu-p-292.7933"
"cpu-p-292.7934"
"cpu-p-292.7935"
"cpu-p-292.7936"
"cpu-p-292.7937"
"cpu-p-292.7938"
"cpu-p-292.7939"
"cpu-p-292.7940"
"cpu-p-292.7941"
"cpu-p-292.7942"
"cpu-p-292.7943"
"cpu-p-292.7944"
"cpu-p-292.7945"
"cpu-p-292.7946"
"cpu-p-292.7947"
"cpu-p-292.7948"
"cpu-p-293.220716"
"cpu-p-293.220717"
"cpu-p-293.220718"
"cpu-p-293.220719"
"cpu-p-293.220720"
"cpu-p-293.220721"
"cpu-p-293.220722"
"cpu-p-293.220723"
"cpu-p-293.220724"
"cpu-p-293.220725"
"cpu-p-293.220726"
"cpu-p-293.220727"
"cpu-p-293.220728"
"cpu-p-293.220729"
"cpu-p-293.220730"
"cpu-p-293.220731"
"cpu-p-293.220732"
"cpu-p-293.220733"
"cpu-p-293.220734"
"cpu-p-293.220735"
"cpu-p-293.220736"
"cpu-p-293.220737"
"cpu-p-293.220738"
"cpu-p-293.220739"
"cpu-p-293.220740"
"cpu-p-293.220741"
"cpu-p-293.220742"
"cpu-p-293.220743"
"cpu-p-293.220744"
"cpu-p-293.220745"
"cpu-p-293.220746"
"cpu-p-293.220747"
"cpu-p-293.220748"
"cpu-p-293.220749"
"cpu-p-293.220750"
"cpu-p-293.220751"
"cpu-p-293.220752"
"cpu-p-293.220753"
"cpu-p-293.220754"
"cpu-p-293.220755"
"cpu-p-293.220756"
"cpu-p-293.220757"
"cpu-p-293.220758"
"cpu-p-293.220759"
"cpu-p-293.220760"
"cpu-p-293.220761"
"cpu-p-293.220762"
"cpu-p-293.220763"
"cpu-p-293.220764"
"cpu-p-293.220765"
"cpu-p-293.220766"
"cpu-p-293.220767"
"cpu-p-293.220768"
"cpu-p-293.220769"
"cpu-p-293.220770"
"cpu-p-293.220771"
"cpu-p-294.270737"
"cpu-p-294.270738"
"cpu-p-294.270739"
"cpu-p-294.270740"
"cpu-p-294.270741"
"cpu-p-294.270742"
"cpu-p-294.270743"
"cpu-p-294.270744"
"cpu-p-294.270745"
"cpu-p-294.270746"
"cpu-p-294.270747"
"cpu-p-294.270748"
"cpu-p-294.270749"
"cpu-p-294.270750"
"cpu-p-294.270751"
"cpu-p-294.270752"
"cpu-p-294.270753"
"cpu-p-294.270754"
"cpu-p-294.270755"
"cpu-p-294.270756"
"cpu-p-294.270757"
"cpu-p-294.270758"
"cpu-p-294.270759"
"cpu-p-294.270760"
"cpu-p-294.270761"
"cpu-p-294.270762"
"cpu-p-294.270763"
"cpu-p-294.270764"
"cpu-p-294.270765"
"cpu-p-294.270766"
"cpu-p-294.270767"
"cpu-p-294.270768"
"cpu-p-294.270769"
"cpu-p-294.270770"
"cpu-p-294.270771"
"cpu-p-294.270772"
"cpu-p-294.270773"
"cpu-p-294.270774"
"cpu-p-294.270775"
"cpu-p-294.270776"
"cpu-p-294.270777"
"cpu-p-294.270778"
"cpu-p-294.270779"
"cpu-p-294.270780"
"cpu-p-294.270781"
"cpu-p-294.270782"
"cpu-p-294.270783"
"cpu-p-294.270784"
"cpu-p-294.270785"
"cpu-p-294.270786"
"cpu-p-294.270787"
"cpu-p-294.270788"
"cpu-p-294.270789"
"cpu-p-294.270790"
"cpu-p-294.270791"
"cpu-p-294.270792"
"cpu-p-295.242337"
"cpu-p-295.242338"
"cpu-p-295.242339"
"cpu-p-295.242340"
"cpu-p-295.242341"
"cpu-p-295.242342"
"cpu-p-295.242343"
"cpu-p-295.242344"
"cpu-p-295.242345"
"cpu-p-295.242346"
"cpu-p-295.242347"
"cpu-p-295.242348"
"cpu-p-295.242349"
"cpu-p-295.242350"
"cpu-p-295.242351"
"cpu-p-295.242352"
"cpu-p-295.242353"
"cpu-p-295.242354"
"cpu-p-295.242355"
"cpu-p-295.242356"
"cpu-p-295.242357"
"cpu-p-295.242358"
"cpu-p-295.242359"
"cpu-p-295.242360"
"cpu-p-295.242361"
"cpu-p-295.242362"
"cpu-p-295.242363"
"cpu-p-295.242364"
"cpu-p-295.242365"
"cpu-p-295.242366"
"cpu-p-295.242367"
"cpu-p-295.242368"
"cpu-p-295.242369"
"cpu-p-295.242370"
"cpu-p-295.242371"
"cpu-p-295.242372"
"cpu-p-295.242373"
"cpu-p-295.242374"
"cpu-p-295.242375"
"cpu-p-295.242376"
"cpu-p-295.242377"
"cpu-p-295.242378"
"cpu-p-295.242379"
"cpu-p-295.242380"
"cpu-p-295.242381"
"cpu-p-295.242382"
"cpu-p-295.242383"
"cpu-p-295.242384"
"cpu-p-295.242385"
"cpu-p-295.242386"
"cpu-p-295.242387"
"cpu-p-295.242388"
"cpu-p-295.242389"
"cpu-p-295.242390"
"cpu-p-295.242391"
"cpu-p-295.242392"
"cpu-p-296.255918"
"cpu-p-296.255919"
"cpu-p-296.255920"
"cpu-p-296.255921"
"cpu-p-296.255922"
"cpu-p-296.255923"
"cpu-p-296.255924"
"cpu-p-296.255925"
"cpu-p-296.255926"
"cpu-p-296.255927"
"cpu-p-296.255928"
"cpu-p-296.255929"
"cpu-p-296.255930"
"cpu-p-296.255931"
"cpu-p-296.255932"
"cpu-p-296.255933"
"cpu-p-296.255934"
"cpu-p-296.255935"
"cpu-p-296.255936"
"cpu-p-296.255937"
"cpu-p-296.255938"
"cpu-p-296.255939"
"cpu-p-296.255940"
"cpu-p-296.255941"
"cpu-p-296.255942"
"cpu-p-296.255943"
"cpu-p-296.255944"
"cpu-p-296.255945"
"cpu-p-296.255946"
"cpu-p-296.255947"
"cpu-p-296.255948"
"cpu-p-296.255949"
"cpu-p-296.255950"
"cpu-p-296.255951"
"cpu-p-296.255952"
"cpu-p-296.255953"
"cpu-p-296.255954"
"cpu-p-296.255955"
"cpu-p-296.255956"
"cpu-p-296.255957"
"cpu-p-296.255958"
"cpu-p-296.255959"
"cpu-p-296.255960"
"cpu-p-296.255961"
"cpu-p-296.255962"
"cpu-p-296.255963"
"cpu-p-296.255964"
"cpu-p-296.255965"
"cpu-p-296.255966"
"cpu-p-296.255967"
"cpu-p-296.255968"
"cpu-p-296.255969"
"cpu-p-296.255970"
"cpu-p-296.255971"
"cpu-p-296.255972"
"cpu-p-296.255973"
"cpu-p-297.226391"
"cpu-p-297.226392"
"cpu-p-297.226393"
"cpu-p-297.226394"
"cpu-p-297.226395"
"cpu-p-297.226396"
"cpu-p-297.226397"
"cpu-p-297.226398"
"cpu-p-297.226399"
"cpu-p-297.226400"
"cpu-p-297.226401"
"cpu-p-297.226402"
"cpu-p-297.226403"
"cpu-p-297.226404"
"cpu-p-297.226405"
"cpu-p-297.226406"
"cpu-p-297.226407"
"cpu-p-297.226408"
"cpu-p-297.226409"
"cpu-p-297.226410"
"cpu-p-297.226411"
"cpu-p-297.226412"
"cpu-p-297.226413"
"cpu-p-297.226414"
"cpu-p-297.226415"
"cpu-p-297.226416"
"cpu-p-297.226417"
"cpu-p-297.226418"
"cpu-p-297.226419"
"cpu-p-297.226420"
"cpu-p-297.226421"
"cpu-p-297.226422"
"cpu-p-297.226423"
"cpu-p-297.226424"
"cpu-p-297.226425"
"cpu-p-297.226426"
"cpu-p-297.226427"
"cpu-p-297.226428"
"cpu-p-297.226429"
"cpu-p-297.226430"
"cpu-p-297.226431"
"cpu-p-297.226432"
"cpu-p-297.226433"
"cpu-p-297.226434"
"cpu-p-297.226435"
"cpu-p-297.226436"
"cpu-p-297.226437"
"cpu-p-297.226438"
"cpu-p-297.226439"
"cpu-p-297.226440"
"cpu-p-297.226441"
"cpu-p-297.226442"
"cpu-p-297.226443"
"cpu-p-297.226444"
"cpu-p-297.226445"
"cpu-p-297.226446"
"cpu-p-298.212747"
"cpu-p-298.212748"
"cpu-p-298.212749"
"cpu-p-298.212750"
"cpu-p-298.212751"
"cpu-p-298.212752"
"cpu-p-298.212753"
"cpu-p-298.212754"
"cpu-p-298.212755"
"cpu-p-298.212756"
"cpu-p-298.212757"
"cpu-p-298.212758"
"cpu-p-298.212759"
"cpu-p-298.212760"
"cpu-p-298.212761"
"cpu-p-298.212762"
"cpu-p-298.212763"
"cpu-p-298.212764"
"cpu-p-298.212765"
"cpu-p-298.212766"
"cpu-p-298.212767"
"cpu-p-298.212768"
"cpu-p-298.212769"
"cpu-p-298.212770"
"cpu-p-298.212771"
"cpu-p-298.212772"
"cpu-p-298.212773"
"cpu-p-298.212774"
"cpu-p-298.212775"
"cpu-p-298.212776"
"cpu-p-298.212777"
"cpu-p-298.212778"
"cpu-p-298.212779"
"cpu-p-298.212780"
"cpu-p-298.212781"
"cpu-p-298.212782"
"cpu-p-298.212783"
"cpu-p-298.212784"
"cpu-p-298.212785"
"cpu-p-298.212786"
"cpu-p-298.212787"
"cpu-p-298.212788"
"cpu-p-298.212789"
"cpu-p-298.212790"
"cpu-p-298.212791"
"cpu-p-298.212792"
"cpu-p-298.212793"
"cpu-p-298.212794"
"cpu-p-298.212795"
"cpu-p-298.212796"
"cpu-p-298.212797"
"cpu-p-298.212798"
"cpu-p-298.212799"
"cpu-p-298.212800"
"cpu-p-298.212801"
"cpu-p-298.212802"
"cpu-p-299.119880"
"cpu-p-299.119881"
"cpu-p-299.119882"
"cpu-p-299.119883"
"cpu-p-299.119884"
"cpu-p-299.119885"
"cpu-p-299.119886"
"cpu-p-299.119887"
"cpu-p-299.119888"
"cpu-p-299.119889"
"cpu-p-299.119890"
"cpu-p-299.119891"
"cpu-p-299.119892"
"cpu-p-299.119893"
"cpu-p-299.119894"
"cpu-p-299.119895"
"cpu-p-299.119896"
"cpu-p-299.119897"
"cpu-p-299.119898"
"cpu-p-299.119899"
"cpu-p-299.119900"
"cpu-p-299.119901"
"cpu-p-299.119902"
"cpu-p-299.119903"
"cpu-p-299.119904"
"cpu-p-299.119905"
"cpu-p-299.119906"
"cpu-p-299.119907"
"cpu-p-299.119908"
"cpu-p-299.119909"
"cpu-p-299.119910"
"cpu-p-299.119911"
"cpu-p-299.119912"
"cpu-p-299.119913"
"cpu-p-299.119914"
"cpu-p-299.119915"
"cpu-p-299.119916"
"cpu-p-299.119917"
"cpu-p-299.119918"
"cpu-p-299.119919"
"cpu-p-299.119920"
"cpu-p-299.119921"
"cpu-p-299.119922"
"cpu-p-299.119923"
"cpu-p-299.119924"
"cpu-p-299.119925"
"cpu-p-299.119926"
"cpu-p-299.119927"
"cpu-p-299.119928"
"cpu-p-299.119929"
"cpu-p-299.119930"
"cpu-p-299.119931"
"cpu-p-299.119932"
"cpu-p-299.119933"
"cpu-p-299.119934"
"cpu-p-299.119935"
"cpu-p-300.140175"
"cpu-p-300.140176"
"cpu-p-300.140177"
"cpu-p-300.140178"
"cpu-p-300.140179"
"cpu-p-300.140180"
"cpu-p-300.140181"
"cpu-p-300.140182"
"cpu-p-300.140183"
"cpu-p-300.140184"
"cpu-p-300.140185"
"cpu-p-300.140186"
"cpu-p-300.140187"
"cpu-p-300.140188"
"cpu-p-300.140189"
"cpu-p-300.140190"
"cpu-p-300.140191"
"cpu-p-300.140192"
"cpu-p-300.140193"
"cpu-p-300.140194"
"cpu-p-300.140195"
"cpu-p-300.140196"
"cpu-p-300.140197"
"cpu-p-300.140198"
"cpu-p-300.140199"
"cpu-p-300.140200"
"cpu-p-300.140201"
"cpu-p-300.140202"
"cpu-p-300.140203"
"cpu-p-300.140204"
"cpu-p-300.140205"
"cpu-p-300.140206"
"cpu-p-300.140207"
"cpu-p-300.140208"
"cpu-p-300.140209"
"cpu-p-300.140210"
"cpu-p-300.140211"
"cpu-p-300.140212"
"cpu-p-300.140213"
"cpu-p-300.140214"
"cpu-p-300.140215"
"cpu-p-300.140216"
"cpu-p-300.140217"
"cpu-p-300.140218"
"cpu-p-300.140219"
"cpu-p-300.140220"
"cpu-p-300.140221"
"cpu-p-300.140222"
"cpu-p-300.140223"
"cpu-p-300.140224"
"cpu-p-300.140225"
"cpu-p-300.140226"
"cpu-p-300.140227"
"cpu-p-300.140228"
"cpu-p-300.140229"
"cpu-p-300.140230"
"cpu-p-301.123893"
"cpu-p-301.123894"
"cpu-p-301.123895"
"cpu-p-301.123896"
"cpu-p-301.123897"
"cpu-p-301.123898"
"cpu-p-301.123899"
"cpu-p-301.123900"
"cpu-p-301.123901"
"cpu-p-301.123902"
"cpu-p-301.123903"
"cpu-p-301.123904"
"cpu-p-301.123905"
"cpu-p-301.123906"
"cpu-p-301.123907"
"cpu-p-301.123908"
"cpu-p-301.123909"
"cpu-p-301.123910"
"cpu-p-301.123911"
"cpu-p-301.123912"
"cpu-p-301.123913"
"cpu-p-301.123914"
"cpu-p-301.123915"
"cpu-p-301.123916"
"cpu-p-301.123917"
"cpu-p-301.123918"
"cpu-p-301.123919"
"cpu-p-301.123920"
"cpu-p-301.123921"
"cpu-p-301.123922"
"cpu-p-301.123923"
"cpu-p-301.123924"
"cpu-p-301.123925"
"cpu-p-301.123926"
"cpu-p-301.123927"
"cpu-p-301.123928"
"cpu-p-301.123929"
"cpu-p-301.123930"
"cpu-p-301.123931"
"cpu-p-301.123932"
"cpu-p-301.123933"
"cpu-p-301.123934"
"cpu-p-301.123935"
"cpu-p-301.123936"
"cpu-p-301.123937"
"cpu-p-301.123938"
"cpu-p-301.123939"
"cpu-p-301.123940"
"cpu-p-301.123941"
"cpu-p-301.123942"
"cpu-p-301.123943"
"cpu-p-301.123944"
"cpu-p-301.123945"
"cpu-p-301.123946"
"cpu-p-301.123947"
"cpu-p-301.123948"
"cpu-p-302.85024"
"cpu-p-302.85025"
"cpu-p-302.85026"
"cpu-p-302.85027"
"cpu-p-302.85028"
"cpu-p-302.85029"
"cpu-p-302.85030"
"cpu-p-302.85031"
"cpu-p-302.85032"
"cpu-p-302.85033"
"cpu-p-302.85034"
"cpu-p-302.85035"
"cpu-p-302.85036"
"cpu-p-302.85037"
"cpu-p-302.85038"
"cpu-p-302.85039"
"cpu-p-302.85040"
"cpu-p-302.85041"
"cpu-p-302.85042"
"cpu-p-302.85043"
"cpu-p-302.85044"
"cpu-p-302.85045"
"cpu-p-302.85046"
"cpu-p-302.85047"
"cpu-p-302.85048"
"cpu-p-302.85049"
"cpu-p-302.85050"
"cpu-p-302.85051"
"cpu-p-302.85052"
"cpu-p-302.85053"
"cpu-p-302.85054"
"cpu-p-302.85055"
"cpu-p-302.85056"
"cpu-p-302.85057"
"cpu-p-302.85058"
"cpu-p-302.85059"
"cpu-p-302.85060"
"cpu-p-302.85061"
"cpu-p-302.85062"
"cpu-p-302.85063"
"cpu-p-302.85064"
"cpu-p-302.85065"
"cpu-p-302.85066"
"cpu-p-302.85067"
"cpu-p-302.85068"
"cpu-p-302.85069"
"cpu-p-302.85070"
"cpu-p-302.85071"
"cpu-p-302.85072"
"cpu-p-302.85073"
"cpu-p-302.85074"
"cpu-p-302.85075"
"cpu-p-302.85076"
"cpu-p-302.85077"
"cpu-p-302.85078"
"cpu-p-302.85079"
"cpu-p-303.286127"
"cpu-p-303.286128"
"cpu-p-303.286129"
"cpu-p-303.286130"
"cpu-p-303.286131"
"cpu-p-303.286132"
"cpu-p-303.286133"
"cpu-p-303.286134"
"cpu-p-303.286135"
"cpu-p-303.286136"
"cpu-p-303.286137"
"cpu-p-303.286138"
"cpu-p-303.286139"
"cpu-p-303.286140"
"cpu-p-303.286141"
"cpu-p-303.286142"
"cpu-p-303.286143"
"cpu-p-303.286144"
"cpu-p-303.286145"
"cpu-p-303.286146"
"cpu-p-303.286147"
"cpu-p-303.286148"
"cpu-p-303.286149"
"cpu-p-303.286150"
"cpu-p-303.286151"
"cpu-p-303.286152"
"cpu-p-303.286153"
"cpu-p-303.286154"
"cpu-p-303.286155"
"cpu-p-303.286156"
"cpu-p-303.286157"
"cpu-p-303.286158"
"cpu-p-303.286159"
"cpu-p-303.286160"
"cpu-p-303.286161"
"cpu-p-303.286162"
"cpu-p-303.286163"
"cpu-p-303.286164"
"cpu-p-303.286165"
"cpu-p-303.286166"
"cpu-p-303.286167"
"cpu-p-303.286168"
"cpu-p-303.286169"
"cpu-p-303.286170"
"cpu-p-303.286171"
"cpu-p-303.286172"
"cpu-p-303.286173"
"cpu-p-303.286174"
"cpu-p-303.286175"
"cpu-p-303.286176"
"cpu-p-303.286177"
"cpu-p-303.286178"
"cpu-p-303.286179"
"cpu-p-303.286180"
"cpu-p-303.286181"
"cpu-p-303.286182"
"cpu-p-304.55917"
"cpu-p-304.55918"
"cpu-p-304.55919"
"cpu-p-304.55920"
"cpu-p-304.55921"
"cpu-p-304.55922"
"cpu-p-304.55923"
"cpu-p-304.55924"
"cpu-p-304.55925"
"cpu-p-304.55926"
"cpu-p-304.55927"
"cpu-p-304.55928"
"cpu-p-304.55929"
"cpu-p-304.55930"
"cpu-p-304.55931"
"cpu-p-304.55932"
"cpu-p-304.55933"
"cpu-p-304.55934"
"cpu-p-304.55935"
"cpu-p-304.55936"
"cpu-p-304.55937"
"cpu-p-304.55938"
"cpu-p-304.55939"
"cpu-p-304.55940"
"cpu-p-304.55941"
"cpu-p-304.55942"
"cpu-p-304.55943"
"cpu-p-304.55944"
"cpu-p-304.55945"
"cpu-p-304.55946"
"cpu-p-304.55947"
"cpu-p-304.55948"
"cpu-p-304.55949"
"cpu-p-304.55950"
"cpu-p-304.55951"
"cpu-p-304.55952"
"cpu-p-304.55953"
"cpu-p-304.55954"
"cpu-p-304.55955"
"cpu-p-304.55956"
"cpu-p-304.55957"
"cpu-p-304.55958"
"cpu-p-304.55959"
"cpu-p-304.55960"
"cpu-p-304.55961"
"cpu-p-304.55962"
"cpu-p-304.55963"
"cpu-p-304.55964"
"cpu-p-304.55965"
"cpu-p-304.55966"
"cpu-p-304.55967"
"cpu-p-304.55968"
"cpu-p-304.55969"
"cpu-p-304.55970"
"cpu-p-304.55971"
"cpu-p-304.55972"
"cpu-p-305.44860"
"cpu-p-305.44861"
"cpu-p-305.44862"
"cpu-p-305.44863"
"cpu-p-305.44864"
"cpu-p-305.44865"
"cpu-p-305.44866"
"cpu-p-305.44867"
"cpu-p-305.44868"
"cpu-p-305.44869"
"cpu-p-305.44870"
"cpu-p-305.44871"
"cpu-p-305.44872"
"cpu-p-305.44873"
"cpu-p-305.44874"
"cpu-p-305.44875"
"cpu-p-305.44876"
"cpu-p-305.44877"
"cpu-p-305.44878"
"cpu-p-305.44879"
"cpu-p-305.44880"
"cpu-p-305.44881"
"cpu-p-305.44882"
"cpu-p-305.44883"
"cpu-p-305.44884"
"cpu-p-305.44885"
"cpu-p-305.44886"
"cpu-p-305.44887"
"cpu-p-305.44888"
"cpu-p-305.44889"
"cpu-p-305.44890"
"cpu-p-305.44891"
"cpu-p-305.44892"
"cpu-p-305.44893"
"cpu-p-305.44894"
"cpu-p-305.44895"
"cpu-p-305.44896"
"cpu-p-305.44897"
"cpu-p-305.44898"
"cpu-p-305.44899"
"cpu-p-305.44900"
"cpu-p-305.44901"
"cpu-p-305.44902"
"cpu-p-305.44903"
"cpu-p-305.44904"
"cpu-p-305.44905"
"cpu-p-305.44906"
"cpu-p-305.44907"
"cpu-p-305.44908"
"cpu-p-305.44909"
"cpu-p-305.44910"
"cpu-p-305.44911"
"cpu-p-305.44912"
"cpu-p-305.44913"
"cpu-p-305.44914"
"cpu-p-305.44915"
"cpu-p-306.43312"
"cpu-p-306.43313"
"cpu-p-306.43314"
"cpu-p-306.43315"
"cpu-p-306.43316"
"cpu-p-306.43317"
"cpu-p-306.43318"
"cpu-p-306.43319"
"cpu-p-306.43320"
"cpu-p-306.43321"
"cpu-p-306.43322"
"cpu-p-306.43323"
"cpu-p-306.43324"
"cpu-p-306.43325"
"cpu-p-306.43326"
"cpu-p-306.43327"
"cpu-p-306.43328"
"cpu-p-306.43329"
"cpu-p-306.43330"
"cpu-p-306.43331"
"cpu-p-306.43332"
"cpu-p-306.43333"
"cpu-p-306.43334"
"cpu-p-306.43335"
"cpu-p-306.43336"
"cpu-p-306.43337"
"cpu-p-306.43338"
"cpu-p-306.43339"
"cpu-p-306.43340"
"cpu-p-306.43341"
"cpu-p-306.43342"
"cpu-p-306.43343"
"cpu-p-306.43344"
"cpu-p-306.43345"
"cpu-p-306.43346"
"cpu-p-306.43347"
"cpu-p-306.43348"
"cpu-p-306.43349"
"cpu-p-306.43350"
"cpu-p-306.43351"
"cpu-p-306.43352"
"cpu-p-306.43353"
"cpu-p-306.43354"
"cpu-p-306.43355"
"cpu-p-306.43356"
"cpu-p-306.43357"
"cpu-p-306.43358"
"cpu-p-306.43359"
"cpu-p-306.43360"
"cpu-p-306.43361"
"cpu-p-306.43362"
"cpu-p-306.43363"
"cpu-p-306.43364"
"cpu-p-306.43365"
"cpu-p-306.43366"
"cpu-p-306.43367"
"cpu-p-307.255517"
"cpu-p-307.255518"
"cpu-p-307.255519"
"cpu-p-307.255520"
"cpu-p-307.255521"
"cpu-p-307.255522"
"cpu-p-307.255523"
"cpu-p-307.255524"
"cpu-p-307.255525"
"cpu-p-307.255526"
"cpu-p-307.255527"
"cpu-p-307.255528"
"cpu-p-307.255529"
"cpu-p-307.255530"
"cpu-p-307.255531"
"cpu-p-307.255532"
"cpu-p-307.255533"
"cpu-p-307.255534"
"cpu-p-307.255535"
"cpu-p-307.255536"
"cpu-p-307.255537"
"cpu-p-307.255538"
"cpu-p-307.255539"
"cpu-p-307.255540"
"cpu-p-307.255541"
"cpu-p-307.255542"
"cpu-p-307.255543"
"cpu-p-307.255544"
"cpu-p-307.255545"
"cpu-p-307.255546"
"cpu-p-307.255547"
"cpu-p-307.255548"
"cpu-p-307.255549"
"cpu-p-307.255550"
"cpu-p-307.255551"
"cpu-p-307.255552"
"cpu-p-307.255553"
"cpu-p-307.255554"
"cpu-p-307.255555"
"cpu-p-307.255556"
"cpu-p-307.255557"
"cpu-p-307.255558"
"cpu-p-307.255559"
"cpu-p-307.255560"
"cpu-p-307.255561"
"cpu-p-307.255562"
"cpu-p-307.255563"
"cpu-p-307.255564"
"cpu-p-307.255565"
"cpu-p-307.255566"
"cpu-p-307.255567"
"cpu-p-307.255568"
"cpu-p-307.255569"
"cpu-p-307.255570"
"cpu-p-307.255571"
"cpu-p-307.255572"
"cpu-p-308.5719"
"cpu-p-308.5720"
"cpu-p-308.5721"
"cpu-p-308.5722"
"cpu-p-308.5723"
"cpu-p-308.5724"
"cpu-p-308.5725"
"cpu-p-308.5726"
"cpu-p-308.5727"
"cpu-p-308.5728"
"cpu-p-308.5729"
"cpu-p-308.5730"
"cpu-p-308.5731"
"cpu-p-308.5732"
"cpu-p-308.5733"
"cpu-p-308.5734"
"cpu-p-308.5735"
"cpu-p-308.5736"
"cpu-p-308.5737"
"cpu-p-308.5738"
"cpu-p-308.5739"
"cpu-p-308.5740"
"cpu-p-308.5741"
"cpu-p-308.5742"
"cpu-p-308.5743"
"cpu-p-308.5744"
"cpu-p-308.5745"
"cpu-p-308.5746"
"cpu-p-308.5747"
"cpu-p-308.5748"
"cpu-p-308.5749"
"cpu-p-308.5750"
"cpu-p-308.5751"
"cpu-p-308.5752"
"cpu-p-308.5753"
"cpu-p-308.5754"
"cpu-p-308.5755"
"cpu-p-308.5756"
"cpu-p-308.5757"
"cpu-p-308.5758"
"cpu-p-308.5759"
"cpu-p-308.5760"
"cpu-p-308.5761"
"cpu-p-308.5762"
"cpu-p-308.5763"
"cpu-p-308.5764"
"cpu-p-308.5765"
"cpu-p-308.5766"
"cpu-p-308.5767"
"cpu-p-308.5768"
"cpu-p-308.5769"
"cpu-p-308.5770"
"cpu-p-308.5771"
"cpu-p-308.5772"
"cpu-p-308.5773"
"cpu-p-308.5774"
"cpu-p-309.36066"
"cpu-p-309.36067"
"cpu-p-309.36068"
"cpu-p-309.36069"
"cpu-p-309.36070"
"cpu-p-309.36071"
"cpu-p-309.36072"
"cpu-p-309.36073"
"cpu-p-309.36074"
"cpu-p-309.36075"
"cpu-p-309.36076"
"cpu-p-309.36077"
"cpu-p-309.36078"
"cpu-p-309.36079"
"cpu-p-309.36080"
"cpu-p-309.36081"
"cpu-p-309.36082"
"cpu-p-309.36083"
"cpu-p-309.36084"
"cpu-p-309.36085"
"cpu-p-309.36086"
"cpu-p-309.36087"
"cpu-p-309.36088"
"cpu-p-309.36089"
"cpu-p-309.36090"
"cpu-p-309.36091"
"cpu-p-309.36092"
"cpu-p-309.36093"
"cpu-p-309.36094"
"cpu-p-309.36095"
"cpu-p-309.36096"
"cpu-p-309.36097"
"cpu-p-309.36098"
"cpu-p-309.36099"
"cpu-p-309.36100"
"cpu-p-309.36101"
"cpu-p-309.36102"
"cpu-p-309.36103"
"cpu-p-309.36104"
"cpu-p-309.36105"
"cpu-p-309.36106"
"cpu-p-309.36107"
"cpu-p-309.36108"
"cpu-p-309.36109"
"cpu-p-309.36110"
"cpu-p-309.36111"
"cpu-p-309.36112"
"cpu-p-309.36113"
"cpu-p-309.36114"
"cpu-p-309.36115"
"cpu-p-309.36116"
"cpu-p-309.36117"
"cpu-p-309.36118"
"cpu-p-309.36119"
"cpu-p-309.36120"
"cpu-p-309.36121"
"cpu-p-310.15792"
"cpu-p-310.15793"
"cpu-p-310.15794"
"cpu-p-310.15795"
"cpu-p-310.15796"
"cpu-p-310.15797"
"cpu-p-310.15798"
"cpu-p-310.15799"
"cpu-p-310.15800"
"cpu-p-310.15801"
"cpu-p-310.15802"
"cpu-p-310.15803"
"cpu-p-310.15804"
"cpu-p-310.15805"
"cpu-p-310.15806"
"cpu-p-310.15807"
"cpu-p-310.15808"
"cpu-p-310.15809"
"cpu-p-310.15810"
"cpu-p-310.15811"
"cpu-p-310.15812"
"cpu-p-310.15813"
"cpu-p-310.15814"
"cpu-p-310.15815"
"cpu-p-310.15816"
"cpu-p-310.15817"
"cpu-p-310.15818"
"cpu-p-310.15819"
"cpu-p-310.15820"
"cpu-p-310.15821"
"cpu-p-310.15822"
"cpu-p-310.15823"
"cpu-p-310.15824"
"cpu-p-310.15825"
"cpu-p-310.15826"
"cpu-p-310.15827"
"cpu-p-310.15828"
"cpu-p-310.15829"
"cpu-p-310.15830"
"cpu-p-310.15831"
"cpu-p-310.15832"
"cpu-p-310.15833"
"cpu-p-310.15834"
"cpu-p-310.15835"
"cpu-p-310.15836"
"cpu-p-310.15837"
"cpu-p-310.15838"
"cpu-p-310.15839"
"cpu-p-310.15840"
"cpu-p-310.15841"
"cpu-p-310.15842"
"cpu-p-310.15843"
"cpu-p-310.15844"
"cpu-p-310.15845"
"cpu-p-310.15846"
"cpu-p-310.15847"
"cpu-p-311.189444"
"cpu-p-311.189445"
"cpu-p-311.189446"
"cpu-p-311.189447"
"cpu-p-311.189448"
"cpu-p-311.189449"
"cpu-p-311.189450"
"cpu-p-311.189451"
"cpu-p-311.189452"
"cpu-p-311.189453"
"cpu-p-311.189454"
"cpu-p-311.189455"
"cpu-p-311.189456"
"cpu-p-311.189457"
"cpu-p-311.189458"
"cpu-p-311.189459"
"cpu-p-311.189460"
"cpu-p-311.189461"
"cpu-p-311.189462"
"cpu-p-311.189463"
"cpu-p-311.189464"
"cpu-p-311.189465"
"cpu-p-311.189466"
"cpu-p-311.189467"
"cpu-p-311.189468"
"cpu-p-311.189469"
"cpu-p-311.189470"
"cpu-p-311.189471"
"cpu-p-311.189472"
"cpu-p-311.189473"
"cpu-p-311.189474"
"cpu-p-311.189475"
"cpu-p-311.189476"
"cpu-p-311.189477"
"cpu-p-311.189478"
"cpu-p-311.189479"
"cpu-p-311.189480"
"cpu-p-311.189481"
"cpu-p-311.189482"
"cpu-p-311.189483"
"cpu-p-311.189484"
"cpu-p-311.189485"
"cpu-p-311.189486"
"cpu-p-311.189487"
"cpu-p-311.189488"
"cpu-p-311.189489"
"cpu-p-311.189490"
"cpu-p-311.189491"
"cpu-p-311.189492"
"cpu-p-311.189493"
"cpu-p-311.189494"
"cpu-p-311.189495"
"cpu-p-311.189496"
"cpu-p-311.189497"
"cpu-p-311.189498"
"cpu-p-311.189499"
"cpu-p-312.112381"
"cpu-p-312.112382"
"cpu-p-312.112383"
"cpu-p-312.112384"
"cpu-p-312.112385"
"cpu-p-312.112386"
"cpu-p-312.112387"
"cpu-p-312.112388"
"cpu-p-312.112389"
"cpu-p-312.112390"
"cpu-p-312.112391"
"cpu-p-312.112392"
"cpu-p-312.112393"
"cpu-p-312.112394"
"cpu-p-312.112395"
"cpu-p-312.112396"
"cpu-p-312.112397"
"cpu-p-312.112398"
"cpu-p-312.112399"
"cpu-p-312.112400"
"cpu-p-312.112401"
"cpu-p-312.112402"
"cpu-p-312.112403"
"cpu-p-312.112404"
"cpu-p-312.112405"
"cpu-p-312.112406"
"cpu-p-312.112407"
"cpu-p-312.112408"
"cpu-p-312.112409"
"cpu-p-312.112410"
"cpu-p-312.112411"
"cpu-p-312.112412"
"cpu-p-312.112413"
"cpu-p-312.112414"
"cpu-p-312.112415"
"cpu-p-312.112416"
"cpu-p-312.112417"
"cpu-p-312.112418"
"cpu-p-312.112419"
"cpu-p-312.112420"
"cpu-p-312.112421"
"cpu-p-312.112422"
"cpu-p-312.112423"
"cpu-p-312.112424"
"cpu-p-312.112425"
"cpu-p-312.112426"
"cpu-p-312.112427"
"cpu-p-312.112428"
"cpu-p-312.112429"
"cpu-p-312.112430"
"cpu-p-312.112431"
"cpu-p-312.112432"
"cpu-p-312.112433"
"cpu-p-312.112434"
"cpu-p-312.112435"
"cpu-p-312.112436"
"cpu-p-313.112798"
"cpu-p-313.112799"
"cpu-p-313.112800"
"cpu-p-313.112801"
"cpu-p-313.112802"
"cpu-p-313.112803"
"cpu-p-313.112804"
"cpu-p-313.112805"
"cpu-p-313.112806"
"cpu-p-313.112807"
"cpu-p-313.112808"
"cpu-p-313.112809"
"cpu-p-313.112810"
"cpu-p-313.112811"
"cpu-p-313.112812"
"cpu-p-313.112813"
"cpu-p-313.112814"
"cpu-p-313.112815"
"cpu-p-313.112816"
"cpu-p-313.112817"
"cpu-p-313.112818"
"cpu-p-313.112819"
"cpu-p-313.112820"
"cpu-p-313.112821"
"cpu-p-313.112822"
"cpu-p-313.112823"
"cpu-p-313.112824"
"cpu-p-313.112825"
"cpu-p-313.112826"
"cpu-p-313.112827"
"cpu-p-313.112828"
"cpu-p-313.112829"
"cpu-p-313.112830"
"cpu-p-313.112831"
"cpu-p-313.112832"
"cpu-p-313.112833"
"cpu-p-313.112834"
"cpu-p-313.112835"
"cpu-p-313.112836"
"cpu-p-313.112837"
"cpu-p-313.112838"
"cpu-p-313.112839"
"cpu-p-313.112840"
"cpu-p-313.112841"
"cpu-p-313.112842"
"cpu-p-313.112843"
"cpu-p-313.112844"
"cpu-p-313.112845"
"cpu-p-313.112846"
"cpu-p-313.112847"
"cpu-p-313.112848"
"cpu-p-313.112849"
"cpu-p-313.112850"
"cpu-p-313.112851"
"cpu-p-313.112852"
"cpu-p-313.112853"
"cpu-p-314.16866"
"cpu-p-314.16867"
"cpu-p-314.16868"
"cpu-p-314.16869"
"cpu-p-314.16870"
"cpu-p-314.16871"
"cpu-p-314.16872"
"cpu-p-314.16873"
"cpu-p-314.16874"
"cpu-p-314.16875"
"cpu-p-314.16876"
"cpu-p-314.16877"
"cpu-p-314.16878"
"cpu-p-314.16879"
"cpu-p-314.16880"
"cpu-p-314.16881"
"cpu-p-314.16882"
"cpu-p-314.16883"
"cpu-p-314.16884"
"cpu-p-314.16885"
"cpu-p-314.16886"
"cpu-p-314.16887"
"cpu-p-314.16888"
"cpu-p-314.16889"
"cpu-p-314.16890"
"cpu-p-314.16891"
"cpu-p-314.16892"
"cpu-p-314.16893"
"cpu-p-314.16894"
"cpu-p-314.16895"
"cpu-p-314.16896"
"cpu-p-314.16897"
"cpu-p-314.16898"
"cpu-p-314.16899"
"cpu-p-314.16900"
"cpu-p-314.16901"
"cpu-p-314.16902"
"cpu-p-314.16903"
"cpu-p-314.16904"
"cpu-p-314.16905"
"cpu-p-314.16906"
"cpu-p-314.16907"
"cpu-p-314.16908"
"cpu-p-314.16909"
"cpu-p-314.16910"
"cpu-p-314.16911"
"cpu-p-314.16912"
"cpu-p-314.16913"
"cpu-p-314.16914"
"cpu-p-314.16915"
"cpu-p-314.16916"
"cpu-p-314.16917"
"cpu-p-314.16918"
"cpu-p-314.16919"
"cpu-p-314.16920"
"cpu-p-314.16921"
"cpu-p-315.46992"
"cpu-p-315.46993"
"cpu-p-315.46994"
"cpu-p-315.46995"
"cpu-p-315.46996"
"cpu-p-315.46997"
"cpu-p-315.46998"
"cpu-p-315.46999"
"cpu-p-315.47000"
"cpu-p-315.47001"
"cpu-p-315.47002"
"cpu-p-315.47003"
"cpu-p-315.47004"
"cpu-p-315.47005"
"cpu-p-315.47006"
"cpu-p-315.47007"
"cpu-p-315.47008"
"cpu-p-315.47009"
"cpu-p-315.47010"
"cpu-p-315.47011"
"cpu-p-315.47012"
"cpu-p-315.47013"
"cpu-p-315.47014"
"cpu-p-315.47015"
"cpu-p-315.47016"
"cpu-p-315.47017"
"cpu-p-315.47018"
"cpu-p-315.47019"
"cpu-p-315.47020"
"cpu-p-315.47021"
"cpu-p-315.47022"
"cpu-p-315.47023"
"cpu-p-315.47024"
"cpu-p-315.47025"
"cpu-p-315.47026"
"cpu-p-315.47027"
"cpu-p-315.47028"
"cpu-p-315.47029"
"cpu-p-315.47030"
"cpu-p-315.47031"
"cpu-p-315.47032"
"cpu-p-315.47033"
"cpu-p-315.47034"
"cpu-p-315.47035"
"cpu-p-315.47036"
"cpu-p-315.47037"
"cpu-p-315.47038"
"cpu-p-315.47039"
"cpu-p-315.47040"
"cpu-p-315.47041"
"cpu-p-315.47042"
"cpu-p-315.47043"
"cpu-p-315.47044"
"cpu-p-315.47045"
"cpu-p-315.47046"
"cpu-p-315.47047"
"cpu-p-316.13150"
"cpu-p-316.13151"
"cpu-p-316.13152"
"cpu-p-316.13153"
"cpu-p-316.13154"
"cpu-p-316.13155"
"cpu-p-316.13156"
"cpu-p-316.13157"
"cpu-p-316.13158"
"cpu-p-316.13159"
"cpu-p-316.13160"
"cpu-p-316.13161"
"cpu-p-316.13162"
"cpu-p-316.13163"
"cpu-p-316.13164"
"cpu-p-316.13165"
"cpu-p-316.13166"
"cpu-p-316.13167"
"cpu-p-316.13168"
"cpu-p-316.13169"
"cpu-p-316.13170"
"cpu-p-316.13171"
"cpu-p-316.13172"
"cpu-p-316.13173"
"cpu-p-316.13174"
"cpu-p-316.13175"
"cpu-p-316.13176"
"cpu-p-316.13177"
"cpu-p-316.13178"
"cpu-p-316.13179"
"cpu-p-316.13180"
"cpu-p-316.13181"
"cpu-p-316.13182"
"cpu-p-316.13183"
"cpu-p-316.13184"
"cpu-p-316.13185"
"cpu-p-316.13186"
"cpu-p-316.13187"
"cpu-p-316.13188"
"cpu-p-316.13189"
"cpu-p-316.13190"
"cpu-p-316.13191"
"cpu-p-316.13192"
"cpu-p-316.13193"
"cpu-p-316.13194"
"cpu-p-316.13195"
"cpu-p-316.13196"
"cpu-p-316.13197"
"cpu-p-316.13198"
"cpu-p-316.13199"
"cpu-p-316.13200"
"cpu-p-316.13201"
"cpu-p-316.13202"
"cpu-p-316.13203"
"cpu-p-316.13204"
"cpu-p-316.13205"
"cpu-p-317.22677"
"cpu-p-317.22678"
"cpu-p-317.22679"
"cpu-p-317.22680"
"cpu-p-317.22681"
"cpu-p-317.22682"
"cpu-p-317.22683"
"cpu-p-317.22684"
"cpu-p-317.22685"
"cpu-p-317.22686"
"cpu-p-317.22687"
"cpu-p-317.22688"
"cpu-p-317.22689"
"cpu-p-317.22690"
"cpu-p-317.22691"
"cpu-p-317.22692"
"cpu-p-317.22693"
"cpu-p-317.22694"
"cpu-p-317.22695"
"cpu-p-317.22696"
"cpu-p-317.22697"
"cpu-p-317.22698"
"cpu-p-317.22699"
"cpu-p-317.22700"
"cpu-p-317.22701"
"cpu-p-317.22702"
"cpu-p-317.22703"
"cpu-p-317.22704"
"cpu-p-317.22705"
"cpu-p-317.22706"
"cpu-p-317.22707"
"cpu-p-317.22708"
"cpu-p-317.22709"
"cpu-p-317.22710"
"cpu-p-317.22711"
"cpu-p-317.22712"
"cpu-p-317.22713"
"cpu-p-317.22714"
"cpu-p-317.22715"
"cpu-p-317.22716"
"cpu-p-317.22717"
"cpu-p-317.22718"
"cpu-p-317.22719"
"cpu-p-317.22720"
"cpu-p-317.22721"
"cpu-p-317.22722"
"cpu-p-317.22723"
"cpu-p-317.22724"
"cpu-p-317.22725"
"cpu-p-317.22726"
"cpu-p-317.22727"
"cpu-p-317.22728"
"cpu-p-317.22729"
"cpu-p-317.22730"
"cpu-p-317.22731"
"cpu-p-317.22732"
"cpu-p-318.27991"
"cpu-p-318.27992"
"cpu-p-318.27993"
"cpu-p-318.27994"
"cpu-p-318.27995"
"cpu-p-318.27996"
"cpu-p-318.27997"
"cpu-p-318.27998"
"cpu-p-318.27999"
"cpu-p-318.28000"
"cpu-p-318.28001"
"cpu-p-318.28002"
"cpu-p-318.28003"
"cpu-p-318.28004"
"cpu-p-318.28005"
"cpu-p-318.28006"
"cpu-p-318.28007"
"cpu-p-318.28008"
"cpu-p-318.28009"
"cpu-p-318.28010"
"cpu-p-318.28011"
"cpu-p-318.28012"
"cpu-p-318.28013"
"cpu-p-318.28014"
"cpu-p-318.28015"
"cpu-p-318.28016"
"cpu-p-318.28017"
"cpu-p-318.28018"
"cpu-p-318.28019"
"cpu-p-318.28020"
"cpu-p-318.28021"
"cpu-p-318.28022"
"cpu-p-318.28023"
"cpu-p-318.28024"
"cpu-p-318.28025"
"cpu-p-318.28026"
"cpu-p-318.28027"
"cpu-p-318.28028"
"cpu-p-318.28029"
"cpu-p-318.28030"
"cpu-p-318.28031"
"cpu-p-318.28032"
"cpu-p-318.28033"
"cpu-p-318.28034"
"cpu-p-318.28035"
"cpu-p-318.28036"
"cpu-p-318.28037"
"cpu-p-318.28038"
"cpu-p-318.28039"
"cpu-p-318.28040"
"cpu-p-318.28041"
"cpu-p-318.28042"
"cpu-p-318.28043"
"cpu-p-318.28044"
"cpu-p-318.28045"
"cpu-p-318.28046"
"cpu-p-319.19599"
"cpu-p-319.19600"
"cpu-p-319.19601"
"cpu-p-319.19602"
"cpu-p-319.19603"
"cpu-p-319.19604"
"cpu-p-319.19605"
"cpu-p-319.19606"
"cpu-p-319.19607"
"cpu-p-319.19608"
"cpu-p-319.19609"
"cpu-p-319.19610"
"cpu-p-319.19611"
"cpu-p-319.19612"
"cpu-p-319.19613"
"cpu-p-319.19614"
"cpu-p-319.19615"
"cpu-p-319.19616"
"cpu-p-319.19617"
"cpu-p-319.19618"
"cpu-p-319.19619"
"cpu-p-319.19620"
"cpu-p-319.19621"
"cpu-p-319.19622"
"cpu-p-319.19623"
"cpu-p-319.19624"
"cpu-p-319.19625"
"cpu-p-319.19626"
"cpu-p-319.19627"
"cpu-p-319.19628"
"cpu-p-319.19629"
"cpu-p-319.19630"
"cpu-p-319.19631"
"cpu-p-319.19632"
"cpu-p-319.19633"
"cpu-p-319.19634"
"cpu-p-319.19635"
"cpu-p-319.19636"
"cpu-p-319.19637"
"cpu-p-319.19638"
"cpu-p-319.19639"
"cpu-p-319.19640"
"cpu-p-319.19641"
"cpu-p-319.19642"
"cpu-p-319.19643"
"cpu-p-319.19644"
"cpu-p-319.19645"
"cpu-p-319.19646"
"cpu-p-319.19647"
"cpu-p-319.19648"
"cpu-p-319.19649"
"cpu-p-319.19650"
"cpu-p-319.19651"
"cpu-p-319.19652"
"cpu-p-319.19653"
"cpu-p-319.19654"
"cpu-p-320.25837"
"cpu-p-320.25838"
"cpu-p-320.25839"
"cpu-p-320.25840"
"cpu-p-320.25841"
"cpu-p-320.25842"
"cpu-p-320.25843"
"cpu-p-320.25844"
"cpu-p-320.25845"
"cpu-p-320.25846"
"cpu-p-320.25847"
"cpu-p-320.25848"
"cpu-p-320.25849"
"cpu-p-320.25850"
"cpu-p-320.25851"
"cpu-p-320.25852"
"cpu-p-320.25853"
"cpu-p-320.25854"
"cpu-p-320.25855"
"cpu-p-320.25856"
"cpu-p-320.25857"
"cpu-p-320.25858"
"cpu-p-320.25859"
"cpu-p-320.25860"
"cpu-p-320.25861"
"cpu-p-320.25862"
"cpu-p-320.25863"
"cpu-p-320.25864"
"cpu-p-320.25865"
"cpu-p-320.25866"
"cpu-p-320.25867"
"cpu-p-320.25868"
"cpu-p-320.25869"
"cpu-p-320.25870"
"cpu-p-320.25871"
"cpu-p-320.25872"
"cpu-p-320.25873"
"cpu-p-320.25874"
"cpu-p-320.25875"
"cpu-p-320.25876"
"cpu-p-320.25877"
"cpu-p-320.25878"
"cpu-p-320.25879"
"cpu-p-320.25880"
"cpu-p-320.25881"
"cpu-p-320.25882"
"cpu-p-320.25883"
"cpu-p-320.25884"
"cpu-p-320.25885"
"cpu-p-320.25886"
"cpu-p-320.25887"
"cpu-p-320.25888"
"cpu-p-320.25889"
"cpu-p-320.25890"
"cpu-p-320.25891"
"cpu-p-320.25892"
"cpu-p-321.100774"
"cpu-p-321.100775"
"cpu-p-321.100776"
"cpu-p-321.100777"
"cpu-p-321.100778"
"cpu-p-321.100779"
"cpu-p-321.100780"
"cpu-p-321.100781"
"cpu-p-321.100782"
"cpu-p-321.100783"
"cpu-p-321.100784"
"cpu-p-321.100785"
"cpu-p-321.100786"
"cpu-p-321.100787"
"cpu-p-321.100788"
"cpu-p-321.100789"
"cpu-p-321.100790"
"cpu-p-321.100791"
"cpu-p-321.100792"
"cpu-p-321.100793"
"cpu-p-321.100794"
"cpu-p-321.100795"
"cpu-p-321.100796"
"cpu-p-321.100797"
"cpu-p-321.100798"
"cpu-p-321.100799"
"cpu-p-321.100800"
"cpu-p-321.100801"
"cpu-p-321.100802"
"cpu-p-321.100803"
"cpu-p-321.100804"
"cpu-p-321.100805"
"cpu-p-321.100806"
"cpu-p-321.100807"
"cpu-p-321.100808"
"cpu-p-321.100809"
"cpu-p-321.100810"
"cpu-p-321.100811"
"cpu-p-321.100812"
"cpu-p-321.100813"
"cpu-p-321.100814"
"cpu-p-321.100815"
"cpu-p-321.100816"
"cpu-p-321.100817"
"cpu-p-321.100818"
"cpu-p-321.100819"
"cpu-p-321.100820"
"cpu-p-321.100821"
"cpu-p-321.100822"
"cpu-p-321.100823"
"cpu-p-321.100824"
"cpu-p-321.100825"
"cpu-p-321.100826"
"cpu-p-321.100827"
"cpu-p-321.100828"
"cpu-p-321.100829"
"cpu-p-322.94917"
"cpu-p-322.94918"
"cpu-p-322.94919"
"cpu-p-322.94920"
"cpu-p-322.94921"
"cpu-p-322.94922"
"cpu-p-322.94923"
"cpu-p-322.94924"
"cpu-p-322.94925"
"cpu-p-322.94926"
"cpu-p-322.94927"
"cpu-p-322.94928"
"cpu-p-322.94929"
"cpu-p-322.94930"
"cpu-p-322.94931"
"cpu-p-322.94932"
"cpu-p-322.94933"
"cpu-p-322.94934"
"cpu-p-322.94935"
"cpu-p-322.94936"
"cpu-p-322.94937"
"cpu-p-322.94938"
"cpu-p-322.94939"
"cpu-p-322.94940"
"cpu-p-322.94941"
"cpu-p-322.94942"
"cpu-p-322.94943"
"cpu-p-322.94944"
"cpu-p-322.94945"
"cpu-p-322.94946"
"cpu-p-322.94947"
"cpu-p-322.94948"
"cpu-p-322.94949"
"cpu-p-322.94950"
"cpu-p-322.94951"
"cpu-p-322.94952"
"cpu-p-322.94953"
"cpu-p-322.94954"
"cpu-p-322.94955"
"cpu-p-322.94956"
"cpu-p-322.94957"
"cpu-p-322.94958"
"cpu-p-322.94959"
"cpu-p-322.94960"
"cpu-p-322.94961"
"cpu-p-322.94962"
"cpu-p-322.94963"
"cpu-p-322.94964"
"cpu-p-322.94965"
"cpu-p-322.94966"
"cpu-p-322.94967"
"cpu-p-322.94968"
"cpu-p-322.94969"
"cpu-p-322.94970"
"cpu-p-322.94971"
"cpu-p-322.94972"
"cpu-p-323.97859"
"cpu-p-323.97860"
"cpu-p-323.97861"
"cpu-p-323.97862"
"cpu-p-323.97863"
"cpu-p-323.97864"
"cpu-p-323.97865"
"cpu-p-323.97866"
"cpu-p-323.97867"
"cpu-p-323.97868"
"cpu-p-323.97869"
"cpu-p-323.97870"
"cpu-p-323.97871"
"cpu-p-323.97872"
"cpu-p-323.97873"
"cpu-p-323.97874"
"cpu-p-323.97875"
"cpu-p-323.97876"
"cpu-p-323.97877"
"cpu-p-323.97878"
"cpu-p-323.97879"
"cpu-p-323.97880"
"cpu-p-323.97881"
"cpu-p-323.97882"
"cpu-p-323.97883"
"cpu-p-323.97884"
"cpu-p-323.97885"
"cpu-p-323.97886"
"cpu-p-323.97887"
"cpu-p-323.97888"
"cpu-p-323.97889"
"cpu-p-323.97890"
"cpu-p-323.97891"
"cpu-p-323.97892"
"cpu-p-323.97893"
"cpu-p-323.97894"
"cpu-p-323.97895"
"cpu-p-323.97896"
"cpu-p-323.97897"
"cpu-p-323.97898"
"cpu-p-323.97899"
"cpu-p-323.97900"
"cpu-p-323.97901"
"cpu-p-323.97902"
"cpu-p-323.97903"
"cpu-p-323.97904"
"cpu-p-323.97905"
"cpu-p-323.97906"
"cpu-p-323.97907"
"cpu-p-323.97908"
"cpu-p-323.97909"
"cpu-p-323.97910"
"cpu-p-323.97911"
"cpu-p-323.97912"
"cpu-p-323.97913"
"cpu-p-323.97914"
"cpu-p-324.74933"
"cpu-p-324.74934"
"cpu-p-324.74935"
"cpu-p-324.74936"
"cpu-p-324.74937"
"cpu-p-324.74938"
"cpu-p-324.74939"
"cpu-p-324.74940"
"cpu-p-324.74941"
"cpu-p-324.74942"
"cpu-p-324.74943"
"cpu-p-324.74944"
"cpu-p-324.74945"
"cpu-p-324.74946"
"cpu-p-324.74947"
"cpu-p-324.74948"
"cpu-p-324.74949"
"cpu-p-324.74950"
"cpu-p-324.74951"
"cpu-p-324.74952"
"cpu-p-324.74953"
"cpu-p-324.74954"
"cpu-p-324.74955"
"cpu-p-324.74956"
"cpu-p-324.74957"
"cpu-p-324.74958"
"cpu-p-324.74959"
"cpu-p-324.74960"
"cpu-p-324.74961"
"cpu-p-324.74962"
"cpu-p-324.74963"
"cpu-p-324.74964"
"cpu-p-324.74965"
"cpu-p-324.74966"
"cpu-p-324.74967"
"cpu-p-324.74968"
"cpu-p-324.74969"
"cpu-p-324.74970"
"cpu-p-324.74971"
"cpu-p-324.74972"
"cpu-p-324.74973"
"cpu-p-324.74974"
"cpu-p-324.74975"
"cpu-p-324.74976"
"cpu-p-324.74977"
"cpu-p-324.74978"
"cpu-p-324.74979"
"cpu-p-324.74980"
"cpu-p-324.74981"
"cpu-p-324.74982"
"cpu-p-324.74983"
"cpu-p-324.74984"
"cpu-p-324.74985"
"cpu-p-324.74986"
"cpu-p-324.74987"
"cpu-p-324.74988"
"cpu-p-325.280394"
"cpu-p-325.280395"
"cpu-p-325.280396"
"cpu-p-325.280397"
"cpu-p-325.280398"
"cpu-p-325.280399"
"cpu-p-325.280400"
"cpu-p-325.280401"
"cpu-p-325.280402"
"cpu-p-325.280403"
"cpu-p-325.280404"
"cpu-p-325.280405"
"cpu-p-325.280406"
"cpu-p-325.280407"
"cpu-p-325.280408"
"cpu-p-325.280409"
"cpu-p-325.280410"
"cpu-p-325.280411"
"cpu-p-325.280412"
"cpu-p-325.280413"
"cpu-p-325.280414"
"cpu-p-325.280415"
"cpu-p-325.280416"
"cpu-p-325.280417"
"cpu-p-325.280418"
"cpu-p-325.280419"
"cpu-p-325.280420"
"cpu-p-325.280421"
"cpu-p-325.280422"
"cpu-p-325.280423"
"cpu-p-325.280424"
"cpu-p-325.280425"
"cpu-p-325.280426"
"cpu-p-325.280427"
"cpu-p-325.280428"
"cpu-p-325.280429"
"cpu-p-325.280430"
"cpu-p-325.280431"
"cpu-p-325.280432"
"cpu-p-325.280433"
"cpu-p-325.280434"
"cpu-p-325.280435"
"cpu-p-325.280436"
"cpu-p-325.280437"
"cpu-p-325.280438"
"cpu-p-325.280439"
"cpu-p-325.280440"
"cpu-p-325.280441"
"cpu-p-325.280442"
"cpu-p-325.280443"
"cpu-p-325.280444"
"cpu-p-325.280445"
"cpu-p-325.280446"
"cpu-p-325.280447"
"cpu-p-325.280448"
"cpu-p-325.280449"
"cpu-p-326.253764"
"cpu-p-326.253765"
"cpu-p-326.253766"
"cpu-p-326.253767"
"cpu-p-326.253768"
"cpu-p-326.253769"
"cpu-p-326.253770"
"cpu-p-326.253771"
"cpu-p-326.253772"
"cpu-p-326.253773"
"cpu-p-326.253774"
"cpu-p-326.253775"
"cpu-p-326.253776"
"cpu-p-326.253777"
"cpu-p-326.253778"
"cpu-p-326.253779"
"cpu-p-326.253780"
"cpu-p-326.253781"
"cpu-p-326.253782"
"cpu-p-326.253783"
"cpu-p-326.253784"
"cpu-p-326.253785"
"cpu-p-326.253786"
"cpu-p-326.253787"
"cpu-p-326.253788"
"cpu-p-326.253789"
"cpu-p-326.253790"
"cpu-p-326.253791"
"cpu-p-326.253792"
"cpu-p-326.253793"
"cpu-p-326.253794"
"cpu-p-326.253795"
"cpu-p-326.253796"
"cpu-p-326.253797"
"cpu-p-326.253798"
"cpu-p-326.253799"
"cpu-p-326.253800"
"cpu-p-326.253801"
"cpu-p-326.253802"
"cpu-p-326.253803"
"cpu-p-326.253804"
"cpu-p-326.253805"
"cpu-p-326.253806"
"cpu-p-326.253807"
"cpu-p-326.253808"
"cpu-p-326.253809"
"cpu-p-326.253810"
"cpu-p-326.253811"
"cpu-p-326.253812"
"cpu-p-326.253813"
"cpu-p-326.253814"
"cpu-p-326.253815"
"cpu-p-326.253816"
"cpu-p-326.253817"
"cpu-p-326.253818"
"cpu-p-326.253819"
"cpu-p-327.283543"
"cpu-p-327.283544"
"cpu-p-327.283545"
"cpu-p-327.283546"
"cpu-p-327.283547"
"cpu-p-327.283548"
"cpu-p-327.283549"
"cpu-p-327.283550"
"cpu-p-327.283551"
"cpu-p-327.283552"
"cpu-p-327.283553"
"cpu-p-327.283554"
"cpu-p-327.283555"
"cpu-p-327.283556"
"cpu-p-327.283557"
"cpu-p-327.283558"
"cpu-p-327.283559"
"cpu-p-327.283560"
"cpu-p-327.283561"
"cpu-p-327.283562"
"cpu-p-327.283563"
"cpu-p-327.283565"
"cpu-p-327.283566"
"cpu-p-327.283567"
"cpu-p-327.283568"
"cpu-p-327.283569"
"cpu-p-327.283570"
"cpu-p-327.283571"
"cpu-p-327.283572"
"cpu-p-327.283573"
"cpu-p-327.283574"
"cpu-p-327.283575"
"cpu-p-327.283576"
"cpu-p-327.283577"
"cpu-p-327.283578"
"cpu-p-327.283579"
"cpu-p-327.283580"
"cpu-p-327.283581"
"cpu-p-327.283582"
"cpu-p-327.283583"
"cpu-p-327.283584"
"cpu-p-327.283585"
"cpu-p-327.283586"
"cpu-p-327.283587"
"cpu-p-327.283588"
"cpu-p-327.283589"
"cpu-p-327.283590"
"cpu-p-327.283591"
"cpu-p-327.283592"
"cpu-p-327.283593"
"cpu-p-327.283594"
"cpu-p-327.283595"
"cpu-p-327.283596"
"cpu-p-327.283597"
"cpu-p-327.283598"
"cpu-p-327.283599"
"cpu-p-328.272455"
"cpu-p-328.272456"
"cpu-p-328.272457"
"cpu-p-328.272458"
"cpu-p-328.272459"
"cpu-p-328.272460"
"cpu-p-328.272461"
"cpu-p-328.272462"
"cpu-p-328.272463"
"cpu-p-328.272464"
"cpu-p-328.272465"
"cpu-p-328.272466"
"cpu-p-328.272467"
"cpu-p-328.272468"
"cpu-p-328.272469"
"cpu-p-328.272470"
"cpu-p-328.272471"
"cpu-p-328.272472"
"cpu-p-328.272473"
"cpu-p-328.272474"
"cpu-p-328.272475"
"cpu-p-328.272476"
"cpu-p-328.272477"
"cpu-p-328.272478"
"cpu-p-328.272479"
"cpu-p-328.272480"
"cpu-p-328.272481"
"cpu-p-328.272482"
"cpu-p-328.272483"
"cpu-p-328.272484"
"cpu-p-328.272485"
"cpu-p-328.272486"
"cpu-p-328.272487"
"cpu-p-328.272488"
"cpu-p-328.272489"
"cpu-p-328.272490"
"cpu-p-328.272491"
"cpu-p-328.272492"
"cpu-p-328.272493"
"cpu-p-328.272494"
"cpu-p-328.272495"
"cpu-p-328.272496"
"cpu-p-328.272497"
"cpu-p-328.272498"
"cpu-p-328.272499"
"cpu-p-328.272500"
"cpu-p-328.272501"
"cpu-p-328.272502"
"cpu-p-328.272503"
"cpu-p-328.272504"
"cpu-p-328.272505"
"cpu-p-328.272506"
"cpu-p-328.272507"
"cpu-p-328.272508"
"cpu-p-328.272509"
"cpu-p-328.272510"
"cpu-p-329.6008"
"cpu-p-329.6009"
"cpu-p-329.6010"
"cpu-p-329.6011"
"cpu-p-329.6012"
"cpu-p-329.6013"
"cpu-p-329.6014"
"cpu-p-329.6015"
"cpu-p-329.6016"
"cpu-p-329.6017"
"cpu-p-329.6018"
"cpu-p-329.6019"
"cpu-p-329.6020"
"cpu-p-329.6021"
"cpu-p-329.6022"
"cpu-p-329.6023"
"cpu-p-329.6024"
"cpu-p-329.6025"
"cpu-p-329.6026"
"cpu-p-329.6027"
"cpu-p-329.6028"
"cpu-p-329.6029"
"cpu-p-329.6030"
"cpu-p-329.6031"
"cpu-p-329.6032"
"cpu-p-329.6033"
"cpu-p-329.6034"
"cpu-p-329.6035"
"cpu-p-329.6036"
"cpu-p-329.6037"
"cpu-p-329.6038"
"cpu-p-329.6039"
"cpu-p-329.6040"
"cpu-p-329.6041"
"cpu-p-329.6042"
"cpu-p-329.6043"
"cpu-p-329.6044"
"cpu-p-329.6045"
"cpu-p-329.6046"
"cpu-p-329.6047"
"cpu-p-329.6048"
"cpu-p-329.6049"
"cpu-p-329.6050"
"cpu-p-329.6051"
"cpu-p-329.6052"
"cpu-p-329.6053"
"cpu-p-329.6054"
"cpu-p-329.6055"
"cpu-p-329.6056"
"cpu-p-329.6057"
"cpu-p-329.6058"
"cpu-p-329.6059"
"cpu-p-329.6060"
"cpu-p-329.6061"
"cpu-p-329.6062"
"cpu-p-329.6063"
"cpu-p-330.275642"
"cpu-p-330.275643"
"cpu-p-330.275644"
"cpu-p-330.275645"
"cpu-p-330.275646"
"cpu-p-330.275647"
"cpu-p-330.275648"
"cpu-p-330.275649"
"cpu-p-330.275650"
"cpu-p-330.275651"
"cpu-p-330.275652"
"cpu-p-330.275653"
"cpu-p-330.275654"
"cpu-p-330.275655"
"cpu-p-330.275656"
"cpu-p-330.275657"
"cpu-p-330.275658"
"cpu-p-330.275659"
"cpu-p-330.275660"
"cpu-p-330.275661"
"cpu-p-330.275662"
"cpu-p-330.275663"
"cpu-p-330.275664"
"cpu-p-330.275665"
"cpu-p-330.275666"
"cpu-p-330.275667"
"cpu-p-330.275668"
"cpu-p-330.275669"
"cpu-p-330.275670"
"cpu-p-330.275671"
"cpu-p-330.275672"
"cpu-p-330.275673"
"cpu-p-330.275674"
"cpu-p-330.275675"
"cpu-p-330.275676"
"cpu-p-330.275677"
"cpu-p-330.275678"
"cpu-p-330.275679"
"cpu-p-330.275680"
"cpu-p-330.275681"
"cpu-p-330.275682"
"cpu-p-330.275683"
"cpu-p-330.275684"
"cpu-p-330.275685"
"cpu-p-330.275686"
"cpu-p-330.275687"
"cpu-p-330.275688"
"cpu-p-330.275689"
"cpu-p-330.275690"
"cpu-p-330.275691"
"cpu-p-330.275692"
"cpu-p-330.275693"
"cpu-p-330.275694"
"cpu-p-330.275695"
"cpu-p-330.275696"
"cpu-p-330.275697"
"cpu-p-331.278456"
"cpu-p-331.278457"
"cpu-p-331.278458"
"cpu-p-331.278459"
"cpu-p-331.278460"
"cpu-p-331.278461"
"cpu-p-331.278462"
"cpu-p-331.278463"
"cpu-p-331.278464"
"cpu-p-331.278465"
"cpu-p-331.278466"
"cpu-p-331.278467"
"cpu-p-331.278468"
"cpu-p-331.278469"
"cpu-p-331.278470"
"cpu-p-331.278471"
"cpu-p-331.278472"
"cpu-p-331.278473"
"cpu-p-331.278474"
"cpu-p-331.278475"
"cpu-p-331.278476"
"cpu-p-331.278477"
"cpu-p-331.278478"
"cpu-p-331.278479"
"cpu-p-331.278480"
"cpu-p-331.278481"
"cpu-p-331.278482"
"cpu-p-331.278483"
"cpu-p-331.278484"
"cpu-p-331.278485"
"cpu-p-331.278486"
"cpu-p-331.278487"
"cpu-p-331.278488"
"cpu-p-331.278489"
"cpu-p-331.278490"
"cpu-p-331.278491"
"cpu-p-331.278492"
"cpu-p-331.278493"
"cpu-p-331.278494"
"cpu-p-331.278495"
"cpu-p-331.278496"
"cpu-p-331.278497"
"cpu-p-331.278498"
"cpu-p-331.278499"
"cpu-p-331.278500"
"cpu-p-331.278501"
"cpu-p-331.278502"
"cpu-p-331.278503"
"cpu-p-331.278504"
"cpu-p-331.278505"
"cpu-p-331.278506"
"cpu-p-331.278507"
"cpu-p-331.278508"
"cpu-p-331.278509"
"cpu-p-331.278510"
"cpu-p-331.278511"
"cpu-p-332.969"
"cpu-p-332.970"
"cpu-p-332.971"
"cpu-p-332.972"
"cpu-p-332.973"
"cpu-p-332.974"
"cpu-p-332.975"
"cpu-p-332.976"
"cpu-p-332.977"
"cpu-p-332.978"
"cpu-p-332.979"
"cpu-p-332.980"
"cpu-p-332.981"
"cpu-p-332.982"
"cpu-p-332.983"
"cpu-p-332.984"
"cpu-p-332.985"
"cpu-p-332.986"
"cpu-p-332.987"
"cpu-p-332.988"
"cpu-p-332.989"
"cpu-p-332.990"
"cpu-p-332.991"
"cpu-p-332.992"
"cpu-p-332.993"
"cpu-p-332.994"
"cpu-p-332.995"
"cpu-p-332.996"
"cpu-p-332.997"
"cpu-p-332.998"
"cpu-p-332.999"
"cpu-p-332.1000"
"cpu-p-332.1001"
"cpu-p-332.1002"
"cpu-p-332.1003"
"cpu-p-332.1004"
"cpu-p-332.1005"
"cpu-p-332.1006"
"cpu-p-332.1007"
"cpu-p-332.1008"
"cpu-p-332.1009"
"cpu-p-332.1010"
"cpu-p-332.1011"
"cpu-p-332.1012"
"cpu-p-332.1013"
"cpu-p-332.1014"
"cpu-p-332.1015"
"cpu-p-332.1016"
"cpu-p-332.1017"
"cpu-p-332.1018"
"cpu-p-332.1019"
"cpu-p-332.1020"
"cpu-p-332.1021"
"cpu-p-332.1022"
"cpu-p-332.1023"
"cpu-p-332.1024"
"cpu-p-333.12717"
"cpu-p-333.12718"
"cpu-p-333.12719"
"cpu-p-333.12720"
"cpu-p-333.12721"
"cpu-p-333.12722"
"cpu-p-333.12723"
"cpu-p-333.12724"
"cpu-p-333.12725"
"cpu-p-333.12726"
"cpu-p-333.12727"
"cpu-p-333.12728"
"cpu-p-333.12729"
"cpu-p-333.12730"
"cpu-p-333.12731"
"cpu-p-333.12732"
"cpu-p-333.12733"
"cpu-p-333.12734"
"cpu-p-333.12735"
"cpu-p-333.12736"
"cpu-p-333.12737"
"cpu-p-333.12738"
"cpu-p-333.12739"
"cpu-p-333.12740"
"cpu-p-333.12741"
"cpu-p-333.12742"
"cpu-p-333.12743"
"cpu-p-333.12744"
"cpu-p-333.12745"
"cpu-p-333.12746"
"cpu-p-333.12747"
"cpu-p-333.12748"
"cpu-p-333.12749"
"cpu-p-333.12750"
"cpu-p-333.12751"
"cpu-p-333.12752"
"cpu-p-333.12753"
"cpu-p-333.12754"
"cpu-p-333.12755"
"cpu-p-333.12756"
"cpu-p-333.12757"
"cpu-p-333.12758"
"cpu-p-333.12759"
"cpu-p-333.12760"
"cpu-p-333.12761"
"cpu-p-333.12762"
"cpu-p-333.12763"
"cpu-p-333.12764"
"cpu-p-333.12765"
"cpu-p-333.12766"
"cpu-p-333.12767"
"cpu-p-333.12768"
"cpu-p-333.12769"
"cpu-p-333.12770"
"cpu-p-333.12771"
"cpu-p-333.12772"
"cpu-p-334.286117"
"cpu-p-334.286118"
"cpu-p-334.286119"
"cpu-p-334.286120"
"cpu-p-334.286121"
"cpu-p-334.286122"
"cpu-p-334.286123"
"cpu-p-334.286124"
"cpu-p-334.286125"
"cpu-p-334.286126"
"cpu-p-334.286127"
"cpu-p-334.286128"
"cpu-p-334.286129"
"cpu-p-334.286130"
"cpu-p-334.286131"
"cpu-p-334.286132"
"cpu-p-334.286133"
"cpu-p-334.286134"
"cpu-p-334.286135"
"cpu-p-334.286136"
"cpu-p-334.286137"
"cpu-p-334.286138"
"cpu-p-334.286139"
"cpu-p-334.286140"
"cpu-p-334.286141"
"cpu-p-334.286142"
"cpu-p-334.286143"
"cpu-p-334.286144"
"cpu-p-334.286145"
"cpu-p-334.286146"
"cpu-p-334.286147"
"cpu-p-334.286148"
"cpu-p-334.286149"
"cpu-p-334.286150"
"cpu-p-334.286151"
"cpu-p-334.286152"
"cpu-p-334.286153"
"cpu-p-334.286154"
"cpu-p-334.286155"
"cpu-p-334.286156"
"cpu-p-334.286157"
"cpu-p-334.286158"
"cpu-p-334.286159"
"cpu-p-334.286160"
"cpu-p-334.286161"
"cpu-p-334.286162"
"cpu-p-334.286163"
"cpu-p-334.286164"
"cpu-p-334.286165"
"cpu-p-334.286166"
"cpu-p-334.286167"
"cpu-p-334.286168"
"cpu-p-334.286169"
"cpu-p-334.286170"
"cpu-p-334.286171"
"cpu-p-334.286172"
"cpu-p-335.280932"
"cpu-p-335.280933"
"cpu-p-335.280934"
"cpu-p-335.280935"
"cpu-p-335.280936"
"cpu-p-335.280937"
"cpu-p-335.280938"
"cpu-p-335.280939"
"cpu-p-335.280940"
"cpu-p-335.280941"
"cpu-p-335.280942"
"cpu-p-335.280943"
"cpu-p-335.280944"
"cpu-p-335.280945"
"cpu-p-335.280946"
"cpu-p-335.280947"
"cpu-p-335.280948"
"cpu-p-335.280949"
"cpu-p-335.280950"
"cpu-p-335.280951"
"cpu-p-335.280952"
"cpu-p-335.280953"
"cpu-p-335.280954"
"cpu-p-335.280955"
"cpu-p-335.280956"
"cpu-p-335.280957"
"cpu-p-335.280958"
"cpu-p-335.280959"
"cpu-p-335.280960"
"cpu-p-335.280961"
"cpu-p-335.280962"
"cpu-p-335.280963"
"cpu-p-335.280964"
"cpu-p-335.280965"
"cpu-p-335.280966"
"cpu-p-335.280967"
"cpu-p-335.280968"
"cpu-p-335.280969"
"cpu-p-335.280970"
"cpu-p-335.280971"
"cpu-p-335.280972"
"cpu-p-335.280973"
"cpu-p-335.280974"
"cpu-p-335.280975"
"cpu-p-335.280976"
"cpu-p-335.280977"
"cpu-p-335.280978"
"cpu-p-335.280979"
"cpu-p-335.280980"
"cpu-p-335.280981"
"cpu-p-335.280982"
"cpu-p-335.280983"
"cpu-p-335.280984"
"cpu-p-335.280985"
"cpu-p-335.280986"
"cpu-p-335.280987"
"cpu-p-336.1578"
"cpu-p-336.1579"
"cpu-p-336.1580"
"cpu-p-336.1581"
"cpu-p-336.1582"
"cpu-p-336.1583"
"cpu-p-336.1584"
"cpu-p-336.1585"
"cpu-p-336.1586"
"cpu-p-336.1587"
"cpu-p-336.1588"
"cpu-p-336.1589"
"cpu-p-336.1590"
"cpu-p-336.1591"
"cpu-p-336.1592"
"cpu-p-336.1593"
"cpu-p-336.1594"
"cpu-p-336.1595"
"cpu-p-336.1596"
"cpu-p-336.1597"
"cpu-p-336.1598"
"cpu-p-336.1599"
"cpu-p-336.1600"
"cpu-p-336.1601"
"cpu-p-336.1602"
"cpu-p-336.1603"
"cpu-p-336.1604"
"cpu-p-336.1605"
"cpu-p-336.1606"
"cpu-p-336.1607"
"cpu-p-336.1608"
"cpu-p-336.1609"
"cpu-p-336.1610"
"cpu-p-336.1611"
"cpu-p-336.1612"
"cpu-p-336.1613"
"cpu-p-336.1614"
"cpu-p-336.1615"
"cpu-p-336.1616"
"cpu-p-336.1617"
"cpu-p-336.1618"
"cpu-p-336.1619"
"cpu-p-336.1620"
"cpu-p-336.1621"
"cpu-p-336.1622"
"cpu-p-336.1623"
"cpu-p-336.1624"
"cpu-p-336.1625"
"cpu-p-336.1626"
"cpu-p-336.1627"
"cpu-p-336.1628"
"cpu-p-336.1629"
"cpu-p-336.1630"
"cpu-p-336.1631"
"cpu-p-336.1632"
"cpu-p-336.1633"
)

Pstream initialized with:
    floatTransfer      : 0
    nProcsSimpleSum    : 0
    commsType          : nonBlocking
    polling iterations : 0
sigFpe : Enabling floating point exception trapping (FOAM_SIGFPE).
fileModificationChecking : Monitoring run-time modified files using timeStampMaster (fileModificationSkew 10)
allowSystemOperations : Allowing user-supplied system call operations

// * * * * * * * * * * * * * * * * * * * * * * * * * * * * * * * * * * * * * //
Create time

Create mesh for time = 0


SIMPLE: No convergence criteria found

Reading field p

Reading field U

Reading/calculating face flux field phi

Selecting incompressible transport model Newtonian
Selecting turbulence model type RAS
Selecting RAS turbulence model kOmegaSST
Selecting patchDistMethod meshWave
RAS
{
    RASModel        kOmegaSST;
    turbulence      on;
    printCoeffs     on;
    alphaK1         0.85;
    alphaK2         1;
    alphaOmega1     0.5;
    alphaOmega2     0.856;
    gamma1          0.555556;
    gamma2          0.44;
    beta1           0.075;
    beta2           0.0828;
    betaStar        0.09;
    a1              0.31;
    b1              1;
    c1              10;
    F3              false;
}

No MRF models present

No finite volume options present

Starting time loop

Reading surface description:
    yNormal

forces forceCoeffs1:
    Not including porosity effects
forceCoeffs forceCoeffs1:
    Not including porosity effects
Time = 1

smoothSolver:  Solving for Ux, Initial residual = 1, Final residual = 0.0989852, No Iterations 14
smoothSolver:  Solving for Uy, Initial residual = 1, Final residual = 0.089886, No Iterations 13
smoothSolver:  Solving for Uz, Initial residual = 1, Final residual = 0.0838112, No Iterations 14
GAMG:  Solving for p, Initial residual = 1, Final residual = 0.00783402, No Iterations 6
time step continuity errors : sum local = 0.000555015, global = 3.33949e-06, cumulative = 3.33949e-06
smoothSolver:  Solving for omega, Initial residual = 0.0280097, Final residual = 0.00155223, No Iterations 3
bounding omega, min: -1736.62 max: 76244.5 average: 482.783
smoothSolver:  Solving for k, Initial residual = 1, Final residual = 0.0810336, No Iterations 4
ExecutionTime = 13.19 s  ClockTime = 15 s

forceCoeffs forceCoeffs1 write:
    Cm    = 12.3835
    Cd    = 26.7983
    Cl    = -1.80339
    Cl(f) = 11.4818
    Cl(r) = -13.2852

Time = 2

smoothSolver:  Solving for Ux, Initial residual = 0.107225, Final residual = 0.0103167, No Iterations 12
smoothSolver:  Solving for Uy, Initial residual = 0.519338, Final residual = 0.0452446, No Iterations 12
smoothSolver:  Solving for Uz, Initial residual = 0.393654, Final residual = 0.0329167, No Iterations 12
GAMG:  Solving for p, Initial residual = 0.232515, Final residual = 0.00204247, No Iterations 4
time step continuity errors : sum local = 0.00909078, global = 5.15951e-05, cumulative = 5.49346e-05
smoothSolver:  Solving for omega, Initial residual = 0.999999, Final residual = 0.0624759, No Iterations 3
smoothSolver:  Solving for k, Initial residual = 0.968245, Final residual = 5.19896e-08, No Iterations 1
ExecutionTime = 13.26 s  ClockTime = 15 s

forceCoeffs forceCoeffs1 write:
    Cm    = 4.78529
    Cd    = 10.9581
    Cl    = -0.385235
    Cl(f) = 4.59267
    Cl(r) = -4.97791

Time = 3

smoothSolver:  Solving for Ux, Initial residual = 0.13369, Final residual = 0.0118461, No Iterations 5
smoothSolver:  Solving for Uy, Initial residual = 0.562628, Final residual = 0.0466017, No Iterations 6
smoothSolver:  Solving for Uz, Initial residual = 0.628129, Final residual = 0.0534509, No Iterations 5
GAMG:  Solving for p, Initial residual = 0.141478, Final residual = 0.000689734, No Iterations 5
time step continuity errors : sum local = 0.00249838, global = 2.55877e-05, cumulative = 8.05223e-05
smoothSolver:  Solving for omega, Initial residual = 0.538467, Final residual = 3.53389e-13, No Iterations 1
bounding omega, min: -1.12903e+08 max: 6.86901e+15 average: 1.79211e+10
smoothSolver:  Solving for k, Initial residual = 0.116056, Final residual = 6.44118e-08, No Iterations 1
ExecutionTime = 13.33 s  ClockTime = 15 s

forceCoeffs forceCoeffs1 write:
    Cm    = 3.0117
    Cd    = 7.01583
    Cl    = -1.4518
    Cl(f) = 2.2858
    Cl(r) = -3.7376

Time = 4

smoothSolver:  Solving for Ux, Initial residual = 0.0610621, Final residual = 0.00518451, No Iterations 6
smoothSolver:  Solving for Uy, Initial residual = 0.461832, Final residual = 0.040184, No Iterations 6
smoothSolver:  Solving for Uz, Initial residual = 0.453721, Final residual = 0.0366092, No Iterations 6
GAMG:  Solving for p, Initial residual = 0.076953, Final residual = 0.000678431, No Iterations 4
time step continuity errors : sum local = 0.00296776, global = 2.44964e-05, cumulative = 0.000105019
smoothSolver:  Solving for omega, Initial residual = 0.538467, Final residual = 1.4043e-12, No Iterations 1
bounding omega, min: -2.08357e+06 max: 2.0607e+15 average: 5.37657e+09
smoothSolver:  Solving for k, Initial residual = 0.0273308, Final residual = 1.73226e-07, No Iterations 1
ExecutionTime = 13.39 s  ClockTime = 15 s

forceCoeffs forceCoeffs1 write:
    Cm    = 1.39027
    Cd    = 3.5845
    Cl    = -0.801228
    Cl(f) = 0.989659
    Cl(r) = -1.79089

Time = 5

smoothSolver:  Solving for Ux, Initial residual = 0.0261441, Final residual = 0.00255694, No Iterations 7
smoothSolver:  Solving for Uy, Initial residual = 0.360928, Final residual = 0.0307957, No Iterations 7
smoothSolver:  Solving for Uz, Initial residual = 0.31342, Final residual = 0.0257897, No Iterations 7
GAMG:  Solving for p, Initial residual = 0.0604903, Final residual = 0.000459686, No Iterations 4
time step continuity errors : sum local = 0.002196, global = 2.08526e-05, cumulative = 0.000125871
smoothSolver:  Solving for omega, Initial residual = 0.538467, Final residual = 6.5743e-12, No Iterations 1
bounding omega, min: -80618.9 max: 6.18211e+14 average: 1.61298e+09
smoothSolver:  Solving for k, Initial residual = 0.00705538, Final residual = 5.14012e-07, No Iterations 1
ExecutionTime = 13.45 s  ClockTime = 15 s

forceCoeffs forceCoeffs1 write:
    Cm    = 0.732197
    Cd    = 1.93144
    Cl    = -0.378118
    Cl(f) = 0.543138
    Cl(r) = -0.921256

Time = 6

smoothSolver:  Solving for Ux, Initial residual = 0.0184175, Final residual = 0.00145752, No Iterations 8
smoothSolver:  Solving for Uy, Initial residual = 0.31121, Final residual = 0.0298139, No Iterations 7
smoothSolver:  Solving for Uz, Initial residual = 0.260179, Final residual = 0.0222924, No Iterations 7
GAMG:  Solving for p, Initial residual = 0.0522165, Final residual = 0.000375564, No Iterations 4
time step continuity errors : sum local = 0.00175805, global = 1.37472e-05, cumulative = 0.000139619
smoothSolver:  Solving for omega, Initial residual = 0.538467, Final residual = 3.31875e-11, No Iterations 1
bounding omega, min: -68318.4 max: 1.85463e+14 average: 4.83901e+08
smoothSolver:  Solving for k, Initial residual = 0.00189115, Final residual = 1.51789e-06, No Iterations 1
ExecutionTime = 13.51 s  ClockTime = 15 s

forceCoeffs forceCoeffs1 write:
    Cm    = 0.477693
    Cd    = 1.21619
    Cl    = -0.146639
    Cl(f) = 0.404374
    Cl(r) = -0.551012

Time = 7

smoothSolver:  Solving for Ux, Initial residual = 0.0140788, Final residual = 0.00118424, No Iterations 8
smoothSolver:  Solving for Uy, Initial residual = 0.260778, Final residual = 0.0212228, No Iterations 8
smoothSolver:  Solving for Uz, Initial residual = 0.229866, Final residual = 0.0216545, No Iterations 7
GAMG:  Solving for p, Initial residual = 0.0478844, Final residual = 0.000312003, No Iterations 4
time step continuity errors : sum local = 0.00141161, global = 8.90719e-06, cumulative = 0.000148526
smoothSolver:  Solving for omega, Initial residual = 0.538467, Final residual = 1.65925e-10, No Iterations 1
bounding omega, min: -15188.3 max: 5.5639e+13 average: 1.45172e+08
smoothSolver:  Solving for k, Initial residual = 0.000531139, Final residual = 4.67086e-06, No Iterations 1
ExecutionTime = 13.56 s  ClockTime = 15 s

forceCoeffs forceCoeffs1 write:
    Cm    = 0.360897
    Cd    = 0.873357
    Cl    = -0.0658919
    Cl(f) = 0.327951
    Cl(r) = -0.393843

Time = 8

smoothSolver:  Solving for Ux, Initial residual = 0.0115564, Final residual = 0.00102335, No Iterations 8
smoothSolver:  Solving for Uy, Initial residual = 0.228701, Final residual = 0.0190672, No Iterations 8
smoothSolver:  Solving for Uz, Initial residual = 0.211268, Final residual = 0.0210831, No Iterations 7
GAMG:  Solving for p, Initial residual = 0.0447231, Final residual = 0.000278842, No Iterations 4
time step continuity errors : sum local = 0.00122191, global = -2.26576e-06, cumulative = 0.00014626
smoothSolver:  Solving for omega, Initial residual = 0.538467, Final residual = 5.90073e-10, No Iterations 1
bounding omega, min: -21056.5 max: 1.66917e+13 average: 4.35528e+07
smoothSolver:  Solving for k, Initial residual = 0.000179427, Final residual = 1.47482e-05, No Iterations 1
ExecutionTime = 13.61 s  ClockTime = 15 s

forceCoeffs forceCoeffs1 write:
    Cm    = 0.307508
    Cd    = 0.706167
    Cl    = -0.0453124
    Cl(f) = 0.284851
    Cl(r) = -0.330164

Time = 9

smoothSolver:  Solving for Ux, Initial residual = 0.0099658, Final residual = 0.000920361, No Iterations 8
smoothSolver:  Solving for Uy, Initial residual = 0.1982, Final residual = 0.0170025, No Iterations 8
smoothSolver:  Solving for Uz, Initial residual = 0.200722, Final residual = 0.0166465, No Iterations 8
GAMG:  Solving for p, Initial residual = 0.0425175, Final residual = 0.000268413, No Iterations 4
time step continuity errors : sum local = 0.00114095, global = -7.48053e-06, cumulative = 0.000138779
smoothSolver:  Solving for omega, Initial residual = 0.538467, Final residual = 1.33917e-09, No Iterations 1
bounding omega, min: -4962.2 max: 5.00751e+12 average: 1.3067e+07
smoothSolver:  Solving for k, Initial residual = 0.000146633, Final residual = 1.1145e-05, No Iterations 3
ExecutionTime = 13.66 s  ClockTime = 16 s

forceCoeffs forceCoeffs1 write:
    Cm    = 0.272008
    Cd    = 0.604308
    Cl    = -0.068855
    Cl(f) = 0.23758
    Cl(r) = -0.306435

Time = 10

smoothSolver:  Solving for Ux, Initial residual = 0.00881985, Final residual = 0.000846222, No Iterations 8
smoothSolver:  Solving for Uy, Initial residual = 0.177906, Final residual = 0.015841, No Iterations 8
smoothSolver:  Solving for Uz, Initial residual = 0.1911, Final residual = 0.016407, No Iterations 8
GAMG:  Solving for p, Initial residual = 0.040844, Final residual = 0.000261742, No Iterations 4
time step continuity errors : sum local = 0.0010804, global = -8.8485e-06, cumulative = 0.000129931
smoothSolver:  Solving for omega, Initial residual = 0.538467, Final residual = 1.81807e-09, No Iterations 1
bounding omega, min: -16918.6 max: 1.50225e+12 average: 3.92113e+06
smoothSolver:  Solving for k, Initial residual = 0.000332898, Final residual = 1.70694e-05, No Iterations 4
ExecutionTime = 13.72 s  ClockTime = 16 s

forceCoeffs forceCoeffs1 write:
    Cm    = 0.247407
    Cd    = 0.54851
    Cl    = -0.0734918
    Cl(f) = 0.210661
    Cl(r) = -0.284152

Time = 11

smoothSolver:  Solving for Ux, Initial residual = 0.00791619, Final residual = 0.000790667, No Iterations 8
smoothSolver:  Solving for Uy, Initial residual = 0.16367, Final residual = 0.0153382, No Iterations 8
smoothSolver:  Solving for Uz, Initial residual = 0.182443, Final residual = 0.016276, No Iterations 8
GAMG:  Solving for p, Initial residual = 0.0395718, Final residual = 0.000244995, No Iterations 4
time step continuity errors : sum local = 0.000977516, global = -9.04768e-06, cumulative = 0.000120883
smoothSolver:  Solving for omega, Initial residual = 0.538467, Final residual = 5.32119e-09, No Iterations 1
bounding omega, min: -24667.3 max: 4.50676e+11 average: 1.17731e+06
smoothSolver:  Solving for k, Initial residual = 0.000918972, Final residual = 4.75713e-05, No Iterations 4
bounding k, min: -1.8287e-06 max: 156.303 average: 0.539659
ExecutionTime = 13.77 s  ClockTime = 16 s

forceCoeffs forceCoeffs1 write:
    Cm    = 0.233423
    Cd    = 0.519082
    Cl    = -0.0757768
    Cl(f) = 0.195535
    Cl(r) = -0.271312

Time = 12

smoothSolver:  Solving for Ux, Initial residual = 0.00733142, Final residual = 0.000603072, No Iterations 9
smoothSolver:  Solving for Uy, Initial residual = 0.156256, Final residual = 0.0149571, No Iterations 8
smoothSolver:  Solving for Uz, Initial residual = 0.17187, Final residual = 0.0159707, No Iterations 8
GAMG:  Solving for p, Initial residual = 0.0387075, Final residual = 0.000240806, No Iterations 4
time step continuity errors : sum local = 0.000920593, global = -9.59434e-06, cumulative = 0.000111289
smoothSolver:  Solving for omega, Initial residual = 0.538465, Final residual = 2.02662e-08, No Iterations 1
bounding omega, min: -1716.24 max: 1.35203e+11 average: 354113
smoothSolver:  Solving for k, Initial residual = 0.0021416, Final residual = 0.000110296, No Iterations 4
bounding k, min: -8.17455e-06 max: 269.549 average: 0.563205
ExecutionTime = 13.83 s  ClockTime = 16 s

forceCoeffs forceCoeffs1 write:
    Cm    = 0.221636
    Cd    = 0.491479
    Cl    = -0.0567002
    Cl(f) = 0.193286
    Cl(r) = -0.249987

Time = 13

smoothSolver:  Solving for Ux, Initial residual = 0.00682771, Final residual = 0.000581328, No Iterations 9
smoothSolver:  Solving for Uy, Initial residual = 0.147794, Final residual = 0.0147473, No Iterations 8
smoothSolver:  Solving for Uz, Initial residual = 0.161162, Final residual = 0.0156029, No Iterations 8
GAMG:  Solving for p, Initial residual = 0.0382354, Final residual = 0.000249674, No Iterations 4
time step continuity errors : sum local = 0.000910641, global = -1.01828e-05, cumulative = 0.000101106
smoothSolver:  Solving for omega, Initial residual = 0.538461, Final residual = 6.32137e-08, No Iterations 1
bounding omega, min: -2139.59 max: 4.05608e+10 average: 107114
smoothSolver:  Solving for k, Initial residual = 0.00366449, Final residual = 0.000188374, No Iterations 4
bounding k, min: -1.68106e-06 max: 153.499 average: 0.582341
ExecutionTime = 13.89 s  ClockTime = 16 s

forceCoeffs forceCoeffs1 write:
    Cm    = 0.210264
    Cd    = 0.47072
    Cl    = -0.0368642
    Cl(f) = 0.191832
    Cl(r) = -0.228696

Time = 14

smoothSolver:  Solving for Ux, Initial residual = 0.0064674, Final residual = 0.000567909, No Iterations 9
smoothSolver:  Solving for Uy, Initial residual = 0.139338, Final residual = 0.0114067, No Iterations 9
smoothSolver:  Solving for Uz, Initial residual = 0.150934, Final residual = 0.0120492, No Iterations 9
GAMG:  Solving for p, Initial residual = 0.0379647, Final residual = 0.000255063, No Iterations 4
time step continuity errors : sum local = 0.00088817, global = -9.27581e-06, cumulative = 9.18303e-05
smoothSolver:  Solving for omega, Initial residual = 0.538445, Final residual = 1.83747e-07, No Iterations 1
bounding omega, min: -2001.24 max: 1.21682e+10 average: 32983
smoothSolver:  Solving for k, Initial residual = 0.00464014, Final residual = 0.000241318, No Iterations 4
ExecutionTime = 13.95 s  ClockTime = 16 s

forceCoeffs forceCoeffs1 write:
    Cm    = 0.201347
    Cd    = 0.460723
    Cl    = -0.0170117
    Cl(f) = 0.192841
    Cl(r) = -0.209853

Time = 15

smoothSolver:  Solving for Ux, Initial residual = 0.00615634, Final residual = 0.000561595, No Iterations 9
smoothSolver:  Solving for Uy, Initial residual = 0.129588, Final residual = 0.011021, No Iterations 9
smoothSolver:  Solving for Uz, Initial residual = 0.141083, Final residual = 0.01171, No Iterations 9
GAMG:  Solving for p, Initial residual = 0.0376272, Final residual = 0.000250174, No Iterations 4
time step continuity errors : sum local = 0.000831213, global = -7.75717e-06, cumulative = 8.40731e-05
smoothSolver:  Solving for omega, Initial residual = 0.53839, Final residual = 5.51338e-07, No Iterations 1
smoothSolver:  Solving for k, Initial residual = 0.00504369, Final residual = 0.000269404, No Iterations 4
ExecutionTime = 14.01 s  ClockTime = 16 s

forceCoeffs forceCoeffs1 write:
    Cm    = 0.191907
    Cd    = 0.452018
    Cl    = 0.00195801
    Cl(f) = 0.192886
    Cl(r) = -0.190928

Time = 16

smoothSolver:  Solving for Ux, Initial residual = 0.00596054, Final residual = 0.000556819, No Iterations 9
smoothSolver:  Solving for Uy, Initial residual = 0.120603, Final residual = 0.0105823, No Iterations 9
smoothSolver:  Solving for Uz, Initial residual = 0.133521, Final residual = 0.0114921, No Iterations 9
GAMG:  Solving for p, Initial residual = 0.0371722, Final residual = 0.000249254, No Iterations 4
time step continuity errors : sum local = 0.000790009, global = -6.77494e-06, cumulative = 7.72982e-05
smoothSolver:  Solving for omega, Initial residual = 0.53819, Final residual = 1.62993e-06, No Iterations 1
bounding omega, min: -8237.19 max: 1.09514e+09 average: 4016.97
smoothSolver:  Solving for k, Initial residual = 0.00515517, Final residual = 0.00028302, No Iterations 4
bounding k, min: -7.66869e-08 max: 293.189 average: 0.62587
ExecutionTime = 14.07 s  ClockTime = 16 s

forceCoeffs forceCoeffs1 write:
    Cm    = 0.183578
    Cd    = 0.444816
    Cl    = 0.0188153
    Cl(f) = 0.192986
    Cl(r) = -0.17417

Time = 17

smoothSolver:  Solving for Ux, Initial residual = 0.00567176, Final residual = 0.000552759, No Iterations 9
smoothSolver:  Solving for Uy, Initial residual = 0.112402, Final residual = 0.0102424, No Iterations 9
smoothSolver:  Solving for Uz, Initial residual = 0.127392, Final residual = 0.0114557, No Iterations 9
GAMG:  Solving for p, Initial residual = 0.0367877, Final residual = 0.000254655, No Iterations 4
time step continuity errors : sum local = 0.000771474, global = -6.04157e-06, cumulative = 7.12566e-05
smoothSolver:  Solving for omega, Initial residual = 0.537326, Final residual = 4.62073e-06, No Iterations 1
smoothSolver:  Solving for k, Initial residual = 0.00526426, Final residual = 0.000296181, No Iterations 4
bounding k, min: -1.07867e-08 max: 228.93 average: 0.635664
ExecutionTime = 14.16 s  ClockTime = 16 s

forceCoeffs forceCoeffs1 write:
    Cm    = 0.175198
    Cd    = 0.438008
    Cl    = 0.0277605
    Cl(f) = 0.189078
    Cl(r) = -0.161318

Time = 18

smoothSolver:  Solving for Ux, Initial residual = 0.00547542, Final residual = 0.000443438, No Iterations 10
smoothSolver:  Solving for Uy, Initial residual = 0.105428, Final residual = 0.00994051, No Iterations 9
smoothSolver:  Solving for Uz, Initial residual = 0.123378, Final residual = 0.0115237, No Iterations 9
GAMG:  Solving for p, Initial residual = 0.0364863, Final residual = 0.000252724, No Iterations 4
time step continuity errors : sum local = 0.000733376, global = -5.05383e-06, cumulative = 6.62028e-05
smoothSolver:  Solving for omega, Initial residual = 0.532334, Final residual = 1.65668e-05, No Iterations 1
bounding omega, min: -1758.03 max: 9.85629e+07 average: 1359.66
smoothSolver:  Solving for k, Initial residual = 0.00527382, Final residual = 0.00031149, No Iterations 4
bounding k, min: -2.53253e-11 max: 170.366 average: 0.644696
ExecutionTime = 14.27 s  ClockTime = 16 s

forceCoeffs forceCoeffs1 write:
    Cm    = 0.169412
    Cd    = 0.431796
    Cl    = 0.024708
    Cl(f) = 0.181766
    Cl(r) = -0.157058

Time = 19

smoothSolver:  Solving for Ux, Initial residual = 0.00527762, Final residual = 0.000439061, No Iterations 10
smoothSolver:  Solving for Uy, Initial residual = 0.10041, Final residual = 0.00969999, No Iterations 9
smoothSolver:  Solving for Uz, Initial residual = 0.119951, Final residual = 0.0116045, No Iterations 9
GAMG:  Solving for p, Initial residual = 0.0361102, Final residual = 0.000254668, No Iterations 4
time step continuity errors : sum local = 0.000707242, global = -4.27255e-06, cumulative = 6.19302e-05
smoothSolver:  Solving for omega, Initial residual = 0.495345, Final residual = 7.84506e-05, No Iterations 1
smoothSolver:  Solving for k, Initial residual = 0.00528413, Final residual = 0.000328294, No Iterations 4
bounding k, min: -2.96474e-09 max: 147.473 average: 0.651866
ExecutionTime = 14.33 s  ClockTime = 16 s

forceCoeffs forceCoeffs1 write:
    Cm    = 0.168944
    Cd    = 0.431508
    Cl    = 0.0212144
    Cl(f) = 0.179551
    Cl(r) = -0.158337

Time = 20

smoothSolver:  Solving for Ux, Initial residual = 0.00505048, Final residual = 0.000434521, No Iterations 10
smoothSolver:  Solving for Uy, Initial residual = 0.0953226, Final residual = 0.00768022, No Iterations 10
smoothSolver:  Solving for Uz, Initial residual = 0.116363, Final residual = 0.00940417, No Iterations 10
[...]

Time = 80

smoothSolver:  Solving for Ux, Initial residual = 0.0010314, Final residual = 8.92997e-05, No Iterations 11
smoothSolver:  Solving for Uy, Initial residual = 0.0236367, Final residual = 0.00234551, No Iterations 10
smoothSolver:  Solving for Uz, Initial residual = 0.0216224, Final residual = 0.00212645, No Iterations 10
GAMG:  Solving for p, Initial residual = 0.0107055, Final residual = 8.53732e-05, No Iterations 4
time step continuity errors : sum local = 0.000126895, global = -7.02281e-07, cumulative = -2.16287e-05
smoothSolver:  Solving for omega, Initial residual = 0.000150297, Final residual = 8.36129e-06, No Iterations 4
smoothSolver:  Solving for k, Initial residual = 0.00208783, Final residual = 0.000155837, No Iterations 4
ExecutionTime = 19.19 s  ClockTime = 21 s

forceCoeffs forceCoeffs1 write:
    Cm    = 0.153692
    Cd    = 0.402417
    Cl    = 0.083495
    Cl(f) = 0.19544
    Cl(r) = -0.111945

Time = 81

smoothSolver:  Solving for Ux, Initial residual = 0.00102611, Final residual = 8.86492e-05, No Iterations 11
smoothSolver:  Solving for Uy, Initial residual = 0.0236506, Final residual = 0.00232879, No Iterations 10
smoothSolver:  Solving for Uz, Initial residual = 0.0215402, Final residual = 0.00211962, No Iterations 10
GAMG:  Solving for p, Initial residual = 0.0106172, Final residual = 8.60705e-05, No Iterations 4
time step continuity errors : sum local = 0.000127909, global = -2.838e-07, cumulative = -2.19125e-05
smoothSolver:  Solving for omega, Initial residual = 0.000148897, Final residual = 8.24637e-06, No Iterations 4
bounding omega, min: -121.749 max: 87204.6 average: 931.747
smoothSolver:  Solving for k, Initial residual = 0.00205302, Final residual = 0.000153435, No Iterations 4
ExecutionTime = 19.28 s  ClockTime = 21 s

forceCoeffs forceCoeffs1 write:
    Cm    = 0.153811
    Cd    = 0.402849
    Cl    = 0.0840774
    Cl(f) = 0.19585
    Cl(r) = -0.111772

Time = 82

smoothSolver:  Solving for Ux, Initial residual = 0.00101821, Final residual = 8.79062e-05, No Iterations 11
smoothSolver:  Solving for Uy, Initial residual = 0.0235286, Final residual = 0.00230106, No Iterations 10
smoothSolver:  Solving for Uz, Initial residual = 0.021403, Final residual = 0.00210778, No Iterations 10
GAMG:  Solving for p, Initial residual = 0.010499, Final residual = 8.5734e-05, No Iterations 4
time step continuity errors : sum local = 0.000127449, global = 1.37623e-07, cumulative = -2.17749e-05
smoothSolver:  Solving for omega, Initial residual = 0.000147237, Final residual = 8.07657e-06, No Iterations 4
smoothSolver:  Solving for k, Initial residual = 0.0020218, Final residual = 0.00015037, No Iterations 4
ExecutionTime = 19.35 s  ClockTime = 21 s

forceCoeffs forceCoeffs1 write:
    Cm    = 0.153894
    Cd    = 0.403361
    Cl    = 0.0843
    Cl(f) = 0.196044
    Cl(r) = -0.111744

Time = 83

smoothSolver:  Solving for Ux, Initial residual = 0.00100616, Final residual = 8.69746e-05, No Iterations 11
smoothSolver:  Solving for Uy, Initial residual = 0.0232742, Final residual = 0.00227133, No Iterations 10
smoothSolver:  Solving for Uz, Initial residual = 0.0211595, Final residual = 0.00208806, No Iterations 10
GAMG:  Solving for p, Initial residual = 0.0103507, Final residual = 8.49625e-05, No Iterations 4
time step continuity errors : sum local = 0.000126404, global = 6.01855e-07, cumulative = -2.1173e-05
smoothSolver:  Solving for omega, Initial residual = 0.000145617, Final residual = 7.95772e-06, No Iterations 4
bounding omega, min: -32.1337 max: 92046.8 average: 931.886
smoothSolver:  Solving for k, Initial residual = 0.00198742, Final residual = 0.000147412, No Iterations 4
ExecutionTime = 19.41 s  ClockTime = 21 s

forceCoeffs forceCoeffs1 write:
    Cm    = 0.153859
    Cd    = 0.403808
    Cl    = 0.0841451
    Cl(f) = 0.195931
    Cl(r) = -0.111786

Time = 84

smoothSolver:  Solving for Ux, Initial residual = 0.00099207, Final residual = 8.60668e-05, No Iterations 11
smoothSolver:  Solving for Uy, Initial residual = 0.0229372, Final residual = 0.00223633, No Iterations 10
smoothSolver:  Solving for Uz, Initial residual = 0.0208073, Final residual = 0.00205286, No Iterations 10
GAMG:  Solving for p, Initial residual = 0.0102247, Final residual = 8.22063e-05, No Iterations 4
time step continuity errors : sum local = 0.000122468, global = 7.09496e-07, cumulative = -2.04635e-05
smoothSolver:  Solving for omega, Initial residual = 0.000144264, Final residual = 7.88717e-06, No Iterations 4
bounding omega, min: -26.6281 max: 81827 average: 930.917
smoothSolver:  Solving for k, Initial residual = 0.00195603, Final residual = 0.000144779, No Iterations 4
ExecutionTime = 19.48 s  ClockTime = 21 s

forceCoeffs forceCoeffs1 write:
    Cm    = 0.153739
    Cd    = 0.404138
    Cl    = 0.0836433
    Cl(f) = 0.195561
    Cl(r) = -0.111917

Time = 85

smoothSolver:  Solving for Ux, Initial residual = 0.000979527, Final residual = 8.51333e-05, No Iterations 11
smoothSolver:  Solving for Uy, Initial residual = 0.0226144, Final residual = 0.00220778, No Iterations 10
smoothSolver:  Solving for Uz, Initial residual = 0.0204147, Final residual = 0.00200464, No Iterations 10
GAMG:  Solving for p, Initial residual = 0.0101061, Final residual = 7.74313e-05, No Iterations 4
time step continuity errors : sum local = 0.000115538, global = 6.82926e-07, cumulative = -1.97806e-05
smoothSolver:  Solving for omega, Initial residual = 0.000142655, Final residual = 7.83021e-06, No Iterations 4
bounding omega, min: -12.8836 max: 86808.7 average: 930.891
smoothSolver:  Solving for k, Initial residual = 0.001923, Final residual = 0.000142307, No Iterations 4
ExecutionTime = 19.54 s  ClockTime = 21 s

forceCoeffs forceCoeffs1 write:
    Cm    = 0.153601
    Cd    = 0.404382
    Cl    = 0.0827688
    Cl(f) = 0.194985
    Cl(r) = -0.112217

Time = 86

smoothSolver:  Solving for Ux, Initial residual = 0.000971641, Final residual = 8.47071e-05, No Iterations 11
smoothSolver:  Solving for Uy, Initial residual = 0.0224708, Final residual = 0.00220813, No Iterations 10
smoothSolver:  Solving for Uz, Initial residual = 0.0200546, Final residual = 0.00195479, No Iterations 10
GAMG:  Solving for p, Initial residual = 0.0100225, Final residual = 7.37893e-05, No Iterations 4
time step continuity errors : sum local = 0.000110286, global = 5.49926e-07, cumulative = -1.92307e-05
smoothSolver:  Solving for omega, Initial residual = 0.000142051, Final residual = 7.77619e-06, No Iterations 4
smoothSolver:  Solving for k, Initial residual = 0.00189523, Final residual = 0.000140104, No Iterations 4
ExecutionTime = 19.61 s  ClockTime = 21 s

forceCoeffs forceCoeffs1 write:
    Cm    = 0.153569
    Cd    = 0.404589
    Cl    = 0.0813409
    Cl(f) = 0.19424
    Cl(r) = -0.112899

Time = 87

smoothSolver:  Solving for Ux, Initial residual = 0.000968394, Final residual = 8.51257e-05, No Iterations 11
smoothSolver:  Solving for Uy, Initial residual = 0.0225752, Final residual = 0.00224281, No Iterations 10
smoothSolver:  Solving for Uz, Initial residual = 0.0197924, Final residual = 0.00192276, No Iterations 10
GAMG:  Solving for p, Initial residual = 0.00995817, Final residual = 7.29461e-05, No Iterations 4
time step continuity errors : sum local = 0.000109192, global = 5.14914e-07, cumulative = -1.87157e-05
smoothSolver:  Solving for omega, Initial residual = 0.000141844, Final residual = 7.70476e-06, No Iterations 4
smoothSolver:  Solving for k, Initial residual = 0.00187899, Final residual = 0.00013854, No Iterations 4
ExecutionTime = 19.7 s  ClockTime = 22 s

forceCoeffs forceCoeffs1 write:
    Cm    = 0.153677
    Cd    = 0.404792
    Cl    = 0.0794092
    Cl(f) = 0.193382
    Cl(r) = -0.113972

Time = 88

smoothSolver:  Solving for Ux, Initial residual = 0.000968374, Final residual = 8.54245e-05, No Iterations 11
smoothSolver:  Solving for Uy, Initial residual = 0.0228592, Final residual = 0.00185675, No Iterations 11
smoothSolver:  Solving for Uz, Initial residual = 0.0196386, Final residual = 0.00190733, No Iterations 10
GAMG:  Solving for p, Initial residual = 0.00989857, Final residual = 7.35007e-05, No Iterations 4
time step continuity errors : sum local = 0.000110196, global = 6.54315e-07, cumulative = -1.80614e-05
smoothSolver:  Solving for omega, Initial residual = 0.000141451, Final residual = 7.67728e-06, No Iterations 4
smoothSolver:  Solving for k, Initial residual = 0.00186986, Final residual = 0.000137633, No Iterations 4
ExecutionTime = 19.77 s  ClockTime = 22 s

forceCoeffs forceCoeffs1 write:
    Cm    = 0.154058
    Cd    = 0.405183
    Cl    = 0.0771587
    Cl(f) = 0.192638
    Cl(r) = -0.115479

Time = 89

smoothSolver:  Solving for Ux, Initial residual = 0.000970136, Final residual = 8.5391e-05, No Iterations 11
smoothSolver:  Solving for Uy, Initial residual = 0.0230094, Final residual = 0.00187182, No Iterations 11
smoothSolver:  Solving for Uz, Initial residual = 0.0195828, Final residual = 0.00190362, No Iterations 10
GAMG:  Solving for p, Initial residual = 0.00983569, Final residual = 7.40976e-05, No Iterations 4
time step continuity errors : sum local = 0.000111273, global = 8.13584e-07, cumulative = -1.72478e-05
smoothSolver:  Solving for omega, Initial residual = 0.000141038, Final residual = 7.63355e-06, No Iterations 4
smoothSolver:  Solving for k, Initial residual = 0.00186727, Final residual = 0.000137008, No Iterations 4
ExecutionTime = 19.83 s  ClockTime = 22 s

forceCoeffs forceCoeffs1 write:
    Cm    = 0.154718
    Cd    = 0.405928
    Cl    = 0.0749455
    Cl(f) = 0.192191
    Cl(r) = -0.117245

Time = 90

smoothSolver:  Solving for Ux, Initial residual = 0.00097078, Final residual = 8.52883e-05, No Iterations 11
smoothSolver:  Solving for Uy, Initial residual = 0.0231786, Final residual = 0.00188723, No Iterations 11
smoothSolver:  Solving for Uz, Initial residual = 0.0195605, Final residual = 0.00190874, No Iterations 10
GAMG:  Solving for p, Initial residual = 0.0097612, Final residual = 7.42441e-05, No Iterations 4
time step continuity errors : sum local = 0.000111663, global = 8.85192e-07, cumulative = -1.63626e-05
smoothSolver:  Solving for omega, Initial residual = 0.000140637, Final residual = 7.56396e-06, No Iterations 4
smoothSolver:  Solving for k, Initial residual = 0.00186704, Final residual = 0.000136616, No Iterations 4
ExecutionTime = 19.9 s  ClockTime = 22 s

forceCoeffs forceCoeffs1 write:
    Cm    = 0.155667
    Cd    = 0.407115
    Cl    = 0.0731327
    Cl(f) = 0.192233
    Cl(r) = -0.119101

Time = 91

smoothSolver:  Solving for Ux, Initial residual = 0.000970802, Final residual = 8.54462e-05, No Iterations 11
smoothSolver:  Solving for Uy, Initial residual = 0.0232599, Final residual = 0.00190333, No Iterations 11
smoothSolver:  Solving for Uz, Initial residual = 0.0195063, Final residual = 0.001913, No Iterations 10
GAMG:  Solving for p, Initial residual = 0.00968991, Final residual = 7.43984e-05, No Iterations 4
time step continuity errors : sum local = 0.000112023, global = 8.45039e-07, cumulative = -1.55176e-05
smoothSolver:  Solving for omega, Initial residual = 0.000140105, Final residual = 7.51131e-06, No Iterations 4
smoothSolver:  Solving for k, Initial residual = 0.0018692, Final residual = 0.000136543, No Iterations 4
ExecutionTime = 19.96 s  ClockTime = 22 s

forceCoeffs forceCoeffs1 write:
    Cm    = 0.156701
    Cd    = 0.40851
    Cl    = 0.0720015
    Cl(f) = 0.192701
    Cl(r) = -0.1207

Time = 92

smoothSolver:  Solving for Ux, Initial residual = 0.000966829, Final residual = 8.61905e-05, No Iterations 11
smoothSolver:  Solving for Uy, Initial residual = 0.0231512, Final residual = 0.00191084, No Iterations 11
smoothSolver:  Solving for Uz, Initial residual = 0.0193615, Final residual = 0.0019096, No Iterations 10
GAMG:  Solving for p, Initial residual = 0.00961544, Final residual = 7.50566e-05, No Iterations 4
time step continuity errors : sum local = 0.000113103, global = 6.75544e-07, cumulative = -1.48421e-05
smoothSolver:  Solving for omega, Initial residual = 0.000139025, Final residual = 7.49744e-06, No Iterations 4
smoothSolver:  Solving for k, Initial residual = 0.00186732, Final residual = 0.000136475, No Iterations 4
ExecutionTime = 20.03 s  ClockTime = 22 s

forceCoeffs forceCoeffs1 write:
    Cm    = 0.157548
    Cd    = 0.40972
    Cl    = 0.0717261
    Cl(f) = 0.193411
    Cl(r) = -0.121685

Time = 93

smoothSolver:  Solving for Ux, Initial residual = 0.000962009, Final residual = 8.66885e-05, No Iterations 11
smoothSolver:  Solving for Uy, Initial residual = 0.0228804, Final residual = 0.00189875, No Iterations 11
smoothSolver:  Solving for Uz, Initial residual = 0.0191626, Final residual = 0.00189681, No Iterations 10
GAMG:  Solving for p, Initial residual = 0.00951925, Final residual = 7.62358e-05, No Iterations 4
time step continuity errors : sum local = 0.000114892, global = 4.19009e-07, cumulative = -1.44231e-05
smoothSolver:  Solving for omega, Initial residual = 0.000138177, Final residual = 7.4662e-06, No Iterations 4
smoothSolver:  Solving for k, Initial residual = 0.0018611, Final residual = 0.000136251, No Iterations 4
ExecutionTime = 20.09 s  ClockTime = 22 s

forceCoeffs forceCoeffs1 write:
    Cm    = 0.158054
    Cd    = 0.410499
    Cl    = 0.0721678
    Cl(f) = 0.194138
    Cl(r) = -0.121971

Time = 94

smoothSolver:  Solving for Ux, Initial residual = 0.000958988, Final residual = 8.67033e-05, No Iterations 11
smoothSolver:  Solving for Uy, Initial residual = 0.0225842, Final residual = 0.00188028, No Iterations 11
smoothSolver:  Solving for Uz, Initial residual = 0.0189665, Final residual = 0.00187838, No Iterations 10
GAMG:  Solving for p, Initial residual = 0.00939606, Final residual = 7.70778e-05, No Iterations 4
time step continuity errors : sum local = 0.000116118, global = 2.34669e-08, cumulative = -1.43996e-05
smoothSolver:  Solving for omega, Initial residual = 0.000137075, Final residual = 7.42073e-06, No Iterations 4
smoothSolver:  Solving for k, Initial residual = 0.00185264, Final residual = 0.000135974, No Iterations 4
ExecutionTime = 20.17 s  ClockTime = 22 s

forceCoeffs forceCoeffs1 write:
    Cm    = 0.15832
    Cd    = 0.41091
    Cl    = 0.0729409
    Cl(f) = 0.194791
    Cl(r) = -0.12185

Time = 95

smoothSolver:  Solving for Ux, Initial residual = 0.000959556, Final residual = 8.68732e-05, No Iterations 11
smoothSolver:  Solving for Uy, Initial residual = 0.0223846, Final residual = 0.00186938, No Iterations 11
smoothSolver:  Solving for Uz, Initial residual = 0.018821, Final residual = 0.00187285, No Iterations 10
GAMG:  Solving for p, Initial residual = 0.00929022, Final residual = 7.68412e-05, No Iterations 4
time step continuity errors : sum local = 0.000115693, global = -3.33966e-07, cumulative = -1.47336e-05
smoothSolver:  Solving for omega, Initial residual = 0.000136082, Final residual = 7.35558e-06, No Iterations 4
smoothSolver:  Solving for k, Initial residual = 0.00184596, Final residual = 0.000135355, No Iterations 4
ExecutionTime = 20.25 s  ClockTime = 22 s

forceCoeffs forceCoeffs1 write:
    Cm    = 0.15842
    Cd    = 0.411062
    Cl    = 0.0737666
    Cl(f) = 0.195304
    Cl(r) = -0.121537

Time = 96

smoothSolver:  Solving for Ux, Initial residual = 0.000964682, Final residual = 8.70198e-05, No Iterations 11
smoothSolver:  Solving for Uy, Initial residual = 0.0223615, Final residual = 0.00187124, No Iterations 11
smoothSolver:  Solving for Uz, Initial residual = 0.0187854, Final residual = 0.00152983, No Iterations 11
GAMG:  Solving for p, Initial residual = 0.00925574, Final residual = 7.67426e-05, No Iterations 4
time step continuity errors : sum local = 0.000115459, global = -3.83448e-07, cumulative = -1.5117e-05
smoothSolver:  Solving for omega, Initial residual = 0.000135275, Final residual = 7.29234e-06, No Iterations 4
bounding omega, min: -111.909 max: 81883.7 average: 929.553
smoothSolver:  Solving for k, Initial residual = 0.00184303, Final residual = 0.000134476, No Iterations 4
ExecutionTime = 20.33 s  ClockTime = 22 s

forceCoeffs forceCoeffs1 write:
    Cm    = 0.158418
    Cd    = 0.411054
    Cl    = 0.0744506
    Cl(f) = 0.195643
    Cl(r) = -0.121193

Time = 97

smoothSolver:  Solving for Ux, Initial residual = 0.000969093, Final residual = 8.68048e-05, No Iterations 11
smoothSolver:  Solving for Uy, Initial residual = 0.0224503, Final residual = 0.00187539, No Iterations 11
smoothSolver:  Solving for Uz, Initial residual = 0.018673, Final residual = 0.0015244, No Iterations 11
GAMG:  Solving for p, Initial residual = 0.00923237, Final residual = 7.46462e-05, No Iterations 4
time step continuity errors : sum local = 0.000112211, global = -1.38513e-07, cumulative = -1.52555e-05
smoothSolver:  Solving for omega, Initial residual = 0.000134279, Final residual = 7.25074e-06, No Iterations 4
smoothSolver:  Solving for k, Initial residual = 0.00184122, Final residual = 0.000134131, No Iterations 4
ExecutionTime = 20.4 s  ClockTime = 22 s

forceCoeffs forceCoeffs1 write:
    Cm    = 0.15826
    Cd    = 0.410913
    Cl    = 0.0749528
    Cl(f) = 0.195736
    Cl(r) = -0.120783

Time = 98

smoothSolver:  Solving for Ux, Initial residual = 0.000972153, Final residual = 8.65736e-05, No Iterations 11
smoothSolver:  Solving for Uy, Initial residual = 0.0225304, Final residual = 0.00187158, No Iterations 11
smoothSolver:  Solving for Uz, Initial residual = 0.0185478, Final residual = 0.00151363, No Iterations 11
GAMG:  Solving for p, Initial residual = 0.00921719, Final residual = 7.35975e-05, No Iterations 4
time step continuity errors : sum local = 0.000110543, global = 2.41906e-07, cumulative = -1.50136e-05
smoothSolver:  Solving for omega, Initial residual = 0.000134183, Final residual = 7.22189e-06, No Iterations 4
smoothSolver:  Solving for k, Initial residual = 0.00184503, Final residual = 0.000133948, No Iterations 4
ExecutionTime = 20.5 s  ClockTime = 22 s

forceCoeffs forceCoeffs1 write:
    Cm    = 0.157935
    Cd    = 0.410618
    Cl    = 0.0752333
    Cl(f) = 0.195552
    Cl(r) = -0.120319

Time = 99

smoothSolver:  Solving for Ux, Initial residual = 0.000971394, Final residual = 8.62338e-05, No Iterations 11
smoothSolver:  Solving for Uy, Initial residual = 0.0224687, Final residual = 0.00186801, No Iterations 11
smoothSolver:  Solving for Uz, Initial residual = 0.0183511, Final residual = 0.00149726, No Iterations 11
GAMG:  Solving for p, Initial residual = 0.0091676, Final residual = 7.35625e-05, No Iterations 4
time step continuity errors : sum local = 0.000110415, global = 6.15079e-07, cumulative = -1.43985e-05
smoothSolver:  Solving for omega, Initial residual = 0.000133769, Final residual = 7.17624e-06, No Iterations 4
smoothSolver:  Solving for k, Initial residual = 0.00184621, Final residual = 0.000133622, No Iterations 4
ExecutionTime = 20.56 s  ClockTime = 22 s

forceCoeffs forceCoeffs1 write:
    Cm    = 0.157466
    Cd    = 0.410188
    Cl    = 0.0752562
    Cl(f) = 0.195094
    Cl(r) = -0.119838

Time = 100

smoothSolver:  Solving for Ux, Initial residual = 0.000969065, Final residual = 8.58717e-05, No Iterations 11
smoothSolver:  Solving for Uy, Initial residual = 0.0222898, Final residual = 0.0018668, No Iterations 11
smoothSolver:  Solving for Uz, Initial residual = 0.0181307, Final residual = 0.00147872, No Iterations 11
GAMG:  Solving for p, Initial residual = 0.00908492, Final residual = 7.41913e-05, No Iterations 4
time step continuity errors : sum local = 0.000111303, global = 8.06032e-07, cumulative = -1.35925e-05
smoothSolver:  Solving for omega, Initial residual = 0.000133674, Final residual = 7.11096e-06, No Iterations 4
smoothSolver:  Solving for k, Initial residual = 0.00184399, Final residual = 0.00013322, No Iterations 4
ExecutionTime = 20.63 s  ClockTime = 24 s

forceCoeffs forceCoeffs1 write:
    Cm    = 0.156937
    Cd    = 0.409661
    Cl    = 0.0750512
    Cl(f) = 0.194463
    Cl(r) = -0.119412

End

Finalising parallel run
