/*---------------------------------------------------------------------------*\
  =========                 |
  \\      /  F ield         | OpenFOAM: The Open Source CFD Toolbox
   \\    /   O peration     | Website:  https://openfoam.org
    \\  /    A nd           | Version:  7
     \\/     M anipulation  |
\*---------------------------------------------------------------------------*/
Build  : 7
Exec   : decomposePar
Date   : Sep 11 2020
Time   : 10:36:35
Host   : "openhpc-compute-0"
PID    : 28622
I/O    : uncollated
Case   : /alaska/steveb/hpc-tests/stage/alaska/roce-gcc9-openmpi4-ucx/openfoam/Openfoam_Mbike_16
nProcs : 1
sigFpe : Enabling floating point exception trapping (FOAM_SIGFPE).
fileModificationChecking : Monitoring run-time modified files using timeStampMaster (fileModificationSkew 10)
allowSystemOperations : Allowing user-supplied system call operations

// * * * * * * * * * * * * * * * * * * * * * * * * * * * * * * * * * * * * * //
Create time



Decomposing mesh region0

Create mesh

Calculating distribution of cells
 Foam::decompositionMethod::New 
{
    numberOfSubdomains 512;
    method          scotch;
    simpleCoeffs
    {
        n               ( 4 1 1 );
        delta           0.001;
    }
    hierarchicalCoeffs
    {
        n               ( 3 2 1 );
        delta           0.001;
        order           xyz;
    }
    manualCoeffs
    {
        dataFile        "cellDecomposition";
    }
}

Selecting decompositionMethod scotch

Finished decomposition in 0.09 s

Calculating original mesh data

Distributing cells to processors

Distributing faces to processors

Distributing points to processors

Constructing processor meshes

Processor 0
    Number of cells = 20
    Number of faces shared with processor 1 = 11
    Number of faces shared with processor 2 = 10
    Number of faces shared with processor 4 = 8
    Number of faces shared with processor 5 = 3
    Number of faces shared with processor 7 = 2
    Number of faces shared with processor 20 = 3
    Number of faces shared with processor 74 = 3
    Number of faces shared with processor 75 = 6
    Number of faces shared with processor 78 = 1
    Number of processor patches = 9
    Number of processor faces = 47
    Number of boundary faces = 5

Processor 1
    Number of cells = 20
    Number of faces shared with processor 0 = 11
    Number of faces shared with processor 3 = 10
    Number of faces shared with processor 4 = 2
    Number of faces shared with processor 5 = 3
    Number of faces shared with processor 6 = 7
    Number of faces shared with processor 7 = 6
    Number of faces shared with processor 8 = 4
    Number of faces shared with processor 9 = 5
    Number of faces shared with processor 20 = 4
    Number of processor patches = 9
    Number of processor faces = 52
    Number of boundary faces = 2

Processor 2
    Number of cells = 20
    Number of faces shared with processor 0 = 10
    Number of faces shared with processor 3 = 10
    Number of faces shared with processor 23 = 4
    Number of faces shared with processor 51 = 10
    Number of faces shared with processor 72 = 10
    Number of processor patches = 5
    Number of processor faces = 44
    Number of boundary faces = 4

Processor 3
    Number of cells = 20
    Number of faces shared with processor 1 = 10
    Number of faces shared with processor 2 = 10
    Number of faces shared with processor 10 = 6
    Number of faces shared with processor 11 = 4
    Number of faces shared with processor 23 = 4
    Number of faces shared with processor 50 = 10
    Number of processor patches = 6
    Number of processor faces = 44
    Number of boundary faces = 4

Processor 4
    Number of cells = 20
    Number of faces shared with processor 0 = 8
    Number of faces shared with processor 1 = 2
    Number of faces shared with processor 5 = 10
    Number of faces shared with processor 6 = 9
    Number of faces shared with processor 16 = 7
    Number of faces shared with processor 19 = 1
    Number of faces shared with processor 20 = 1
    Number of faces shared with processor 79 = 10
    Number of processor patches = 8
    Number of processor faces = 48
    Number of boundary faces = 4

Processor 5
    Number of cells = 20
    Number of faces shared with processor 0 = 3
    Number of faces shared with processor 1 = 3
    Number of faces shared with processor 4 = 10
    Number of faces shared with processor 6 = 1
    Number of faces shared with processor 7 = 9
    Number of faces shared with processor 78 = 10
    Number of processor patches = 6
    Number of processor faces = 36
    Number of boundary faces = 14

Processor 6
    Number of cells = 20
    Number of faces shared with processor 1 = 7
    Number of faces shared with processor 4 = 9
    Number of faces shared with processor 5 = 1
    Number of faces shared with processor 7 = 9
    Number of faces shared with processor 12 = 1
    Number of faces shared with processor 14 = 9
    Number of faces shared with processor 19 = 7
    Number of faces shared with processor 20 = 1
    Number of processor patches = 8
    Number of processor faces = 44
    Number of boundary faces = 4

Processor 7
    Number of cells = 20
    Number of faces shared with processor 0 = 2
    Number of faces shared with processor 1 = 6
    Number of faces shared with processor 5 = 9
    Number of faces shared with processor 6 = 9
    Number of faces shared with processor 9 = 1
    Number of faces shared with processor 12 = 10
    Number of processor patches = 6
    Number of processor faces = 37
    Number of boundary faces = 15

Processor 8
    Number of cells = 20
    Number of faces shared with processor 1 = 4
    Number of faces shared with processor 9 = 11
    Number of faces shared with processor 10 = 9
    Number of faces shared with processor 11 = 2
    Number of faces shared with processor 14 = 7
    Number of faces shared with processor 15 = 6
    Number of faces shared with processor 29 = 4
    Number of faces shared with processor 31 = 3
    Number of processor patches = 8
    Number of processor faces = 46
    Number of boundary faces = 6

Processor 9
    Number of cells = 20
    Number of faces shared with processor 1 = 5
    Number of faces shared with processor 7 = 1
    Number of faces shared with processor 8 = 11
    Number of faces shared with processor 10 = 1
    Number of faces shared with processor 11 = 8
    Number of faces shared with processor 12 = 6
    Number of faces shared with processor 13 = 8
    Number of faces shared with processor 14 = 3
    Number of faces shared with processor 15 = 1
    Number of processor patches = 9
    Number of processor faces = 44
    Number of boundary faces = 10

Processor 10
    Number of cells = 20
    Number of faces shared with processor 3 = 6
    Number of faces shared with processor 8 = 9
    Number of faces shared with processor 9 = 1
    Number of faces shared with processor 11 = 10
    Number of faces shared with processor 29 = 3
    Number of faces shared with processor 31 = 5
    Number of faces shared with processor 58 = 4
    Number of faces shared with processor 59 = 6
    Number of processor patches = 8
    Number of processor faces = 44
    Number of boundary faces = 4

Processor 11
    Number of cells = 20
    Number of faces shared with processor 3 = 4
    Number of faces shared with processor 8 = 2
    Number of faces shared with processor 9 = 8
    Number of faces shared with processor 10 = 10
    Number of faces shared with processor 58 = 6
    Number of faces shared with processor 59 = 4
    Number of processor patches = 6
    Number of processor faces = 34
    Number of boundary faces = 14

Processor 12
    Number of cells = 20
    Number of faces shared with processor 6 = 1
    Number of faces shared with processor 7 = 10
    Number of faces shared with processor 9 = 6
    Number of faces shared with processor 13 = 9
    Number of faces shared with processor 14 = 10
    Number of processor patches = 5
    Number of processor faces = 36
    Number of boundary faces = 14

Processor 13
    Number of cells = 20
    Number of faces shared with processor 9 = 8
    Number of faces shared with processor 12 = 9
    Number of faces shared with processor 15 = 9
    Number of processor patches = 3
    Number of processor faces = 26
    Number of boundary faces = 26

Processor 14
    Number of cells = 20
    Number of faces shared with processor 6 = 9
    Number of faces shared with processor 8 = 7
    Number of faces shared with processor 9 = 3
    Number of faces shared with processor 12 = 10
    Number of faces shared with processor 15 = 10
    Number of faces shared with processor 24 = 8
    Number of faces shared with processor 31 = 1
    Number of processor patches = 7
    Number of processor faces = 48
    Number of boundary faces = 4

Processor 15
    Number of cells = 20
    Number of faces shared with processor 8 = 6
    Number of faces shared with processor 9 = 1
    Number of faces shared with processor 13 = 9
    Number of faces shared with processor 14 = 10
    Number of faces shared with processor 24 = 3
    Number of faces shared with processor 25 = 4
    Number of faces shared with processor 29 = 1
    Number of processor patches = 7
    Number of processor faces = 34
    Number of boundary faces = 14

Processor 16
    Number of cells = 20
    Number of faces shared with processor 4 = 7
    Number of faces shared with processor 17 = 9
    Number of faces shared with processor 18 = 2
    Number of faces shared with processor 19 = 9
    Number of faces shared with processor 20 = 4
    Number of faces shared with processor 88 = 11
    Number of processor patches = 6
    Number of processor faces = 42
    Number of boundary faces = 6

Processor 17
    Number of cells = 20
    Number of faces shared with processor 16 = 9
    Number of faces shared with processor 18 = 8
    Number of faces shared with processor 19 = 1
    Number of faces shared with processor 20 = 2
    Number of faces shared with processor 21 = 10
    Number of faces shared with processor 209 = 7
    Number of faces shared with processor 211 = 1
    Number of faces shared with processor 215 = 1
    Number of faces shared with processor 91 = 7
    Number of faces shared with processor 93 = 2
    Number of processor patches = 10
    Number of processor faces = 48
    Number of boundary faces = 4

Processor 18
    Number of cells = 20
    Number of faces shared with processor 16 = 2
    Number of faces shared with processor 17 = 8
    Number of faces shared with processor 19 = 10
    Number of faces shared with processor 21 = 4
    Number of faces shared with processor 24 = 1
    Number of faces shared with processor 26 = 2
    Number of faces shared with processor 27 = 7
    Number of faces shared with processor 210 = 4
    Number of faces shared with processor 211 = 3
    Number of faces shared with processor 215 = 1
    Number of processor patches = 10
    Number of processor faces = 42
    Number of boundary faces = 6

Processor 19
    Number of cells = 20
    Number of faces shared with processor 4 = 1
    Number of faces shared with processor 6 = 7
    Number of faces shared with processor 16 = 9
    Number of faces shared with processor 17 = 1
    Number of faces shared with processor 18 = 10
    Number of faces shared with processor 20 = 9
    Number of faces shared with processor 21 = 2
    Number of faces shared with processor 24 = 7
    Number of faces shared with processor 27 = 2
    Number of processor patches = 9
    Number of processor faces = 48
    Number of boundary faces = 4

Processor 20
    Number of cells = 20
    Number of faces shared with processor 0 = 3
    Number of faces shared with processor 1 = 4
    Number of faces shared with processor 4 = 1
    Number of faces shared with processor 6 = 1
    Number of faces shared with processor 16 = 4
    Number of faces shared with processor 17 = 2
    Number of faces shared with processor 19 = 9
    Number of faces shared with processor 21 = 10
    Number of faces shared with processor 23 = 9
    Number of faces shared with processor 24 = 1
    Number of faces shared with processor 31 = 4
    Number of faces shared with processor 93 = 2
    Number of faces shared with processor 94 = 4
    Number of processor patches = 13
    Number of processor faces = 54
    Number of boundary faces = 0

Processor 21
    Number of cells = 20
    Number of faces shared with processor 17 = 10
    Number of faces shared with processor 18 = 4
    Number of faces shared with processor 19 = 2
    Number of faces shared with processor 20 = 10
    Number of faces shared with processor 22 = 10
    Number of faces shared with processor 23 = 1
    Number of faces shared with processor 30 = 5
    Number of faces shared with processor 31 = 1
    Number of faces shared with processor 215 = 7
    Number of faces shared with processor 93 = 4
    Number of processor patches = 10
    Number of processor faces = 54
    Number of boundary faces = 0

Processor 22
    Number of cells = 20
    Number of faces shared with processor 21 = 10
    Number of faces shared with processor 23 = 10
    Number of faces shared with processor 30 = 6
    Number of faces shared with processor 32 = 6
    Number of faces shared with processor 33 = 2
    Number of faces shared with processor 34 = 2
    Number of faces shared with processor 212 = 8
    Number of faces shared with processor 93 = 2
    Number of faces shared with processor 125 = 2
    Number of processor patches = 9
    Number of processor faces = 48
    Number of boundary faces = 0

Processor 23
    Number of cells = 20
    Number of faces shared with processor 2 = 4
    Number of faces shared with processor 3 = 4
    Number of faces shared with processor 20 = 9
    Number of faces shared with processor 21 = 1
    Number of faces shared with processor 22 = 10
    Number of faces shared with processor 31 = 4
    Number of faces shared with processor 33 = 1
    Number of faces shared with processor 34 = 4
    Number of faces shared with processor 35 = 5
    Number of faces shared with processor 95 = 5
    Number of faces shared with processor 127 = 1
    Number of processor patches = 11
    Number of processor faces = 48
    Number of boundary faces = 0

Processor 24
    Number of cells = 20
    Number of faces shared with processor 14 = 8
    Number of faces shared with processor 15 = 3
    Number of faces shared with processor 18 = 1
    Number of faces shared with processor 19 = 7
    Number of faces shared with processor 20 = 1
    Number of faces shared with processor 25 = 11
    Number of faces shared with processor 26 = 2
    Number of faces shared with processor 27 = 7
    Number of faces shared with processor 29 = 2
    Number of faces shared with processor 31 = 6
    Number of processor patches = 10
    Number of processor faces = 48
    Number of boundary faces = 6

Processor 25
    Number of cells = 20
    Number of faces shared with processor 15 = 4
    Number of faces shared with processor 24 = 11
    Number of faces shared with processor 26 = 8
    Number of faces shared with processor 27 = 3
    Number of faces shared with processor 28 = 2
    Number of faces shared with processor 29 = 4
    Number of faces shared with processor 31 = 1
    Number of processor patches = 7
    Number of processor faces = 33
    Number of boundary faces = 17

Processor 26
    Number of cells = 20
    Number of faces shared with processor 18 = 2
    Number of faces shared with processor 24 = 2
    Number of faces shared with processor 25 = 8
    Number of faces shared with processor 27 = 10
    Number of faces shared with processor 28 = 4
    Number of faces shared with processor 220 = 2
    Number of faces shared with processor 221 = 8
    Number of processor patches = 7
    Number of processor faces = 36
    Number of boundary faces = 16

Processor 27
    Number of cells = 20
    Number of faces shared with processor 18 = 7
    Number of faces shared with processor 19 = 2
    Number of faces shared with processor 24 = 7
    Number of faces shared with processor 25 = 3
    Number of faces shared with processor 26 = 10
    Number of faces shared with processor 28 = 2
    Number of faces shared with processor 30 = 6
    Number of faces shared with processor 31 = 4
    Number of faces shared with processor 219 = 1
    Number of faces shared with processor 220 = 6
    Number of processor patches = 10
    Number of processor faces = 48
    Number of boundary faces = 0

Processor 28
    Number of cells = 20
    Number of faces shared with processor 25 = 2
    Number of faces shared with processor 26 = 4
    Number of faces shared with processor 27 = 2
    Number of faces shared with processor 29 = 10
    Number of faces shared with processor 30 = 7
    Number of faces shared with processor 31 = 1
    Number of faces shared with processor 43 = 4
    Number of faces shared with processor 217 = 4
    Number of faces shared with processor 219 = 3
    Number of faces shared with processor 221 = 1
    Number of processor patches = 10
    Number of processor faces = 38
    Number of boundary faces = 10

Processor 29
    Number of cells = 20
    Number of faces shared with processor 8 = 4
    Number of faces shared with processor 10 = 3
    Number of faces shared with processor 15 = 1
    Number of faces shared with processor 24 = 2
    Number of faces shared with processor 25 = 4
    Number of faces shared with processor 28 = 10
    Number of faces shared with processor 30 = 2
    Number of faces shared with processor 31 = 10
    Number of faces shared with processor 42 = 5
    Number of processor patches = 9
    Number of processor faces = 41
    Number of boundary faces = 11

Processor 30
    Number of cells = 20
    Number of faces shared with processor 21 = 5
    Number of faces shared with processor 22 = 6
    Number of faces shared with processor 27 = 6
    Number of faces shared with processor 28 = 7
    Number of faces shared with processor 29 = 2
    Number of faces shared with processor 31 = 9
    Number of faces shared with processor 40 = 6
    Number of faces shared with processor 216 = 4
    Number of faces shared with processor 219 = 3
    Number of processor patches = 9
    Number of processor faces = 48
    Number of boundary faces = 0

Processor 31
    Number of cells = 20
    Number of faces shared with processor 8 = 3
    Number of faces shared with processor 10 = 5
    Number of faces shared with processor 14 = 1
    Number of faces shared with processor 20 = 4
    Number of faces shared with processor 21 = 1
    Number of faces shared with processor 23 = 4
    Number of faces shared with processor 24 = 6
    Number of faces shared with processor 25 = 1
    Number of faces shared with processor 27 = 4
    Number of faces shared with processor 28 = 1
    Number of faces shared with processor 29 = 10
    Number of faces shared with processor 30 = 9
    Number of faces shared with processor 40 = 4
    Number of faces shared with processor 42 = 1
    Number of processor patches = 14
    Number of processor faces = 54
    Number of boundary faces = 0

Processor 32
    Number of cells = 20
    Number of faces shared with processor 22 = 6
    Number of faces shared with processor 33 = 10
    Number of faces shared with processor 34 = 8
    Number of faces shared with processor 35 = 2
    Number of faces shared with processor 39 = 4
    Number of faces shared with processor 40 = 4
    Number of faces shared with processor 41 = 4
    Number of faces shared with processor 224 = 2
    Number of faces shared with processor 226 = 8
    Number of processor patches = 9
    Number of processor faces = 48
    Number of boundary faces = 0

Processor 33
    Number of cells = 20
    Number of faces shared with processor 22 = 2
    Number of faces shared with processor 23 = 1
    Number of faces shared with processor 32 = 10
    Number of faces shared with processor 34 = 2
    Number of faces shared with processor 35 = 8
    Number of faces shared with processor 38 = 2
    Number of faces shared with processor 39 = 10
    Number of faces shared with processor 224 = 2
    Number of faces shared with processor 225 = 4
    Number of faces shared with processor 234 = 1
    Number of faces shared with processor 124 = 4
    Number of faces shared with processor 125 = 4
    Number of faces shared with processor 127 = 4
    Number of processor patches = 13
    Number of processor faces = 54
    Number of boundary faces = 0

Processor 34
    Number of cells = 20
    Number of faces shared with processor 22 = 2
    Number of faces shared with processor 23 = 4
    Number of faces shared with processor 32 = 8
    Number of faces shared with processor 33 = 2
    Number of faces shared with processor 35 = 12
    Number of faces shared with processor 38 = 4
    Number of faces shared with processor 39 = 2
    Number of faces shared with processor 40 = 6
    Number of faces shared with processor 41 = 4
    Number of faces shared with processor 50 = 4
    Number of processor patches = 10
    Number of processor faces = 48
    Number of boundary faces = 0

Processor 35
    Number of cells = 20
    Number of faces shared with processor 23 = 5
    Number of faces shared with processor 32 = 2
    Number of faces shared with processor 33 = 8
    Number of faces shared with processor 34 = 12
    Number of faces shared with processor 38 = 9
    Number of faces shared with processor 41 = 1
    Number of faces shared with processor 48 = 7
    Number of faces shared with processor 51 = 4
    Number of faces shared with processor 126 = 4
    Number of faces shared with processor 127 = 4
    Number of processor patches = 10
    Number of processor faces = 56
    Number of boundary faces = 0

Processor 36
    Number of cells = 20
    Number of faces shared with processor 37 = 10
    Number of faces shared with processor 39 = 10
    Number of faces shared with processor 44 = 4
    Number of faces shared with processor 46 = 2
    Number of faces shared with processor 232 = 4
    Number of faces shared with processor 234 = 4
    Number of faces shared with processor 123 = 4
    Number of processor patches = 7
    Number of processor faces = 38
    Number of boundary faces = 10

Processor 37
    Number of cells = 20
    Number of faces shared with processor 36 = 10
    Number of faces shared with processor 38 = 9
    Number of faces shared with processor 39 = 1
    Number of faces shared with processor 46 = 4
    Number of faces shared with processor 52 = 4
    Number of faces shared with processor 55 = 4
    Number of faces shared with processor 121 = 4
    Number of faces shared with processor 123 = 2
    Number of processor patches = 8
    Number of processor faces = 38
    Number of boundary faces = 10

Processor 38
    Number of cells = 20
    Number of faces shared with processor 33 = 2
    Number of faces shared with processor 34 = 4
    Number of faces shared with processor 35 = 9
    Number of faces shared with processor 37 = 9
    Number of faces shared with processor 39 = 10
    Number of faces shared with processor 41 = 1
    Number of faces shared with processor 46 = 4
    Number of faces shared with processor 48 = 2
    Number of faces shared with processor 52 = 4
    Number of faces shared with processor 55 = 3
    Number of faces shared with processor 120 = 5
    Number of faces shared with processor 123 = 1
    Number of processor patches = 12
    Number of processor faces = 54
    Number of boundary faces = 0

Processor 39
    Number of cells = 20
    Number of faces shared with processor 32 = 4
    Number of faces shared with processor 33 = 10
    Number of faces shared with processor 34 = 2
    Number of faces shared with processor 36 = 10
    Number of faces shared with processor 37 = 1
    Number of faces shared with processor 38 = 10
    Number of faces shared with processor 44 = 4
    Number of faces shared with processor 46 = 2
    Number of faces shared with processor 232 = 4
    Number of faces shared with processor 234 = 3
    Number of faces shared with processor 123 = 2
    Number of faces shared with processor 124 = 2
    Number of processor patches = 12
    Number of processor faces = 54
    Number of boundary faces = 0

Processor 40
    Number of cells = 20
    Number of faces shared with processor 30 = 6
    Number of faces shared with processor 31 = 4
    Number of faces shared with processor 32 = 4
    Number of faces shared with processor 34 = 6
    Number of faces shared with processor 41 = 10
    Number of faces shared with processor 42 = 6
    Number of faces shared with processor 43 = 4
    Number of faces shared with processor 59 = 4
    Number of faces shared with processor 230 = 4
    Number of processor patches = 9
    Number of processor faces = 48
    Number of boundary faces = 0

Processor 41
    Number of cells = 20
    Number of faces shared with processor 32 = 4
    Number of faces shared with processor 34 = 4
    Number of faces shared with processor 35 = 1
    Number of faces shared with processor 38 = 1
    Number of faces shared with processor 40 = 10
    Number of faces shared with processor 42 = 5
    Number of faces shared with processor 43 = 5
    Number of faces shared with processor 44 = 6
    Number of faces shared with processor 46 = 6
    Number of faces shared with processor 47 = 3
    Number of faces shared with processor 57 = 4
    Number of faces shared with processor 230 = 3
    Number of processor patches = 12
    Number of processor faces = 52
    Number of boundary faces = 0

Processor 42
    Number of cells = 20
    Number of faces shared with processor 29 = 5
    Number of faces shared with processor 31 = 1
    Number of faces shared with processor 40 = 6
    Number of faces shared with processor 41 = 5
    Number of faces shared with processor 43 = 10
    Number of faces shared with processor 45 = 1
    Number of faces shared with processor 47 = 8
    Number of faces shared with processor 57 = 3
    Number of faces shared with processor 58 = 4
    Number of processor patches = 9
    Number of processor faces = 43
    Number of boundary faces = 9

Processor 43
    Number of cells = 20
    Number of faces shared with processor 28 = 4
    Number of faces shared with processor 40 = 4
    Number of faces shared with processor 41 = 5
    Number of faces shared with processor 42 = 10
    Number of faces shared with processor 44 = 1
    Number of faces shared with processor 45 = 6
    Number of faces shared with processor 229 = 8
    Number of processor patches = 7
    Number of processor faces = 38
    Number of boundary faces = 10

Processor 44
    Number of cells = 20
    Number of faces shared with processor 36 = 4
    Number of faces shared with processor 39 = 4
    Number of faces shared with processor 41 = 6
    Number of faces shared with processor 43 = 1
    Number of faces shared with processor 45 = 11
    Number of faces shared with processor 46 = 8
    Number of faces shared with processor 47 = 1
    Number of faces shared with processor 230 = 1
    Number of faces shared with processor 236 = 8
    Number of faces shared with processor 239 = 2
    Number of processor patches = 10
    Number of processor faces = 46
    Number of boundary faces = 6

Processor 45
    Number of cells = 20
    Number of faces shared with processor 42 = 1
    Number of faces shared with processor 43 = 6
    Number of faces shared with processor 44 = 11
    Number of faces shared with processor 46 = 3
    Number of faces shared with processor 47 = 8
    Number of faces shared with processor 239 = 6
    Number of processor patches = 6
    Number of processor faces = 35
    Number of boundary faces = 15

Processor 46
    Number of cells = 20
    Number of faces shared with processor 36 = 2
    Number of faces shared with processor 37 = 4
    Number of faces shared with processor 38 = 4
    Number of faces shared with processor 39 = 2
    Number of faces shared with processor 41 = 6
    Number of faces shared with processor 44 = 8
    Number of faces shared with processor 45 = 3
    Number of faces shared with processor 47 = 11
    Number of faces shared with processor 63 = 6
    Number of processor patches = 9
    Number of processor faces = 46
    Number of boundary faces = 6

Processor 47
    Number of cells = 20
    Number of faces shared with processor 41 = 3
    Number of faces shared with processor 42 = 8
    Number of faces shared with processor 44 = 1
    Number of faces shared with processor 45 = 8
    Number of faces shared with processor 46 = 11
    Number of faces shared with processor 57 = 2
    Number of faces shared with processor 61 = 8
    Number of faces shared with processor 63 = 1
    Number of processor patches = 8
    Number of processor faces = 42
    Number of boundary faces = 14

Processor 48
    Number of cells = 20
    Number of faces shared with processor 35 = 7
    Number of faces shared with processor 38 = 2
    Number of faces shared with processor 49 = 10
    Number of faces shared with processor 50 = 4
    Number of faces shared with processor 51 = 5
    Number of faces shared with processor 52 = 6
    Number of faces shared with processor 54 = 2
    Number of faces shared with processor 55 = 6
    Number of faces shared with processor 57 = 4
    Number of faces shared with processor 118 = 6
    Number of processor patches = 10
    Number of processor faces = 52
    Number of boundary faces = 0

Processor 49
    Number of cells = 20
    Number of faces shared with processor 48 = 10
    Number of faces shared with processor 50 = 6
    Number of faces shared with processor 51 = 5
    Number of faces shared with processor 53 = 8
    Number of faces shared with processor 54 = 9
    Number of faces shared with processor 56 = 4
    Number of faces shared with processor 57 = 1
    Number of faces shared with processor 117 = 4
    Number of processor patches = 8
    Number of processor faces = 47
    Number of boundary faces = 7

Processor 50
    Number of cells = 20
    Number of faces shared with processor 3 = 10
    Number of faces shared with processor 34 = 4
    Number of faces shared with processor 48 = 4
    Number of faces shared with processor 49 = 6
    Number of faces shared with processor 51 = 10
    Number of faces shared with processor 59 = 10
    Number of processor patches = 6
    Number of processor faces = 44
    Number of boundary faces = 4

Processor 51
    Number of cells = 20
    Number of faces shared with processor 2 = 10
    Number of faces shared with processor 35 = 4
    Number of faces shared with processor 48 = 5
    Number of faces shared with processor 49 = 5
    Number of faces shared with processor 50 = 10
    Number of faces shared with processor 117 = 6
    Number of faces shared with processor 118 = 4
    Number of processor patches = 7
    Number of processor faces = 44
    Number of boundary faces = 4

Processor 52
    Number of cells = 20
    Number of faces shared with processor 37 = 4
    Number of faces shared with processor 38 = 4
    Number of faces shared with processor 48 = 6
    Number of faces shared with processor 53 = 10
    Number of faces shared with processor 55 = 8
    Number of faces shared with processor 63 = 10
    Number of processor patches = 6
    Number of processor faces = 42
    Number of boundary faces = 6

Processor 53
    Number of cells = 20
    Number of faces shared with processor 49 = 8
    Number of faces shared with processor 52 = 10
    Number of faces shared with processor 54 = 11
    Number of faces shared with processor 55 = 1
    Number of faces shared with processor 56 = 1
    Number of faces shared with processor 62 = 9
    Number of faces shared with processor 63 = 1
    Number of processor patches = 7
    Number of processor faces = 41
    Number of boundary faces = 11

Processor 54
    Number of cells = 20
    Number of faces shared with processor 48 = 2
    Number of faces shared with processor 49 = 9
    Number of faces shared with processor 53 = 11
    Number of faces shared with processor 55 = 9
    Number of faces shared with processor 112 = 4
    Number of faces shared with processor 114 = 4
    Number of faces shared with processor 117 = 1
    Number of processor patches = 7
    Number of processor faces = 40
    Number of boundary faces = 14

Processor 55
    Number of cells = 20
    Number of faces shared with processor 37 = 4
    Number of faces shared with processor 38 = 3
    Number of faces shared with processor 48 = 6
    Number of faces shared with processor 52 = 8
    Number of faces shared with processor 53 = 1
    Number of faces shared with processor 54 = 9
    Number of faces shared with processor 112 = 6
    Number of faces shared with processor 114 = 1
    Number of faces shared with processor 115 = 4
    Number of processor patches = 9
    Number of processor faces = 42
    Number of boundary faces = 6

Processor 56
    Number of cells = 20
    Number of faces shared with processor 49 = 4
    Number of faces shared with processor 53 = 1
    Number of faces shared with processor 57 = 10
    Number of faces shared with processor 58 = 6
    Number of faces shared with processor 59 = 6
    Number of faces shared with processor 60 = 8
    Number of faces shared with processor 62 = 7
    Number of processor patches = 7
    Number of processor faces = 42
    Number of boundary faces = 12

Processor 57
    Number of cells = 20
    Number of faces shared with processor 41 = 4
    Number of faces shared with processor 42 = 3
    Number of faces shared with processor 47 = 2
    Number of faces shared with processor 48 = 4
    Number of faces shared with processor 49 = 1
    Number of faces shared with processor 56 = 10
    Number of faces shared with processor 58 = 4
    Number of faces shared with processor 59 = 4
    Number of faces shared with processor 61 = 6
    Number of faces shared with processor 62 = 4
    Number of faces shared with processor 63 = 6
    Number of processor patches = 11
    Number of processor faces = 48
    Number of boundary faces = 4

Processor 58
    Number of cells = 20
    Number of faces shared with processor 10 = 4
    Number of faces shared with processor 11 = 6
    Number of faces shared with processor 42 = 4
    Number of faces shared with processor 56 = 6
    Number of faces shared with processor 57 = 4
    Number of faces shared with processor 59 = 10
    Number of processor patches = 6
    Number of processor faces = 34
    Number of boundary faces = 14

Processor 59
    Number of cells = 20
    Number of faces shared with processor 10 = 6
    Number of faces shared with processor 11 = 4
    Number of faces shared with processor 40 = 4
    Number of faces shared with processor 50 = 10
    Number of faces shared with processor 56 = 6
    Number of faces shared with processor 57 = 4
    Number of faces shared with processor 58 = 10
    Number of processor patches = 7
    Number of processor faces = 44
    Number of boundary faces = 4

Processor 60
    Number of cells = 20
    Number of faces shared with processor 56 = 8
    Number of faces shared with processor 61 = 10
    Number of faces shared with processor 62 = 11
    Number of faces shared with processor 63 = 1
    Number of processor patches = 4
    Number of processor faces = 30
    Number of boundary faces = 22

Processor 61
    Number of cells = 20
    Number of faces shared with processor 47 = 8
    Number of faces shared with processor 57 = 6
    Number of faces shared with processor 60 = 10
    Number of faces shared with processor 63 = 8
    Number of processor patches = 4
    Number of processor faces = 32
    Number of boundary faces = 16

Processor 62
    Number of cells = 20
    Number of faces shared with processor 53 = 9
    Number of faces shared with processor 56 = 7
    Number of faces shared with processor 57 = 4
    Number of faces shared with processor 60 = 11
    Number of faces shared with processor 63 = 9
    Number of processor patches = 5
    Number of processor faces = 40
    Number of boundary faces = 14

Processor 63
    Number of cells = 20
    Number of faces shared with processor 46 = 6
    Number of faces shared with processor 47 = 1
    Number of faces shared with processor 52 = 10
    Number of faces shared with processor 53 = 1
    Number of faces shared with processor 57 = 6
    Number of faces shared with processor 60 = 1
    Number of faces shared with processor 61 = 8
    Number of faces shared with processor 62 = 9
    Number of processor patches = 8
    Number of processor faces = 42
    Number of boundary faces = 6

Processor 64
    Number of cells = 20
    Number of faces shared with processor 65 = 10
    Number of faces shared with processor 66 = 5
    Number of faces shared with processor 67 = 4
    Number of faces shared with processor 69 = 6
    Number of faces shared with processor 70 = 2
    Number of faces shared with processor 71 = 6
    Number of faces shared with processor 77 = 4
    Number of faces shared with processor 83 = 3
    Number of faces shared with processor 86 = 3
    Number of faces shared with processor 87 = 3
    Number of processor patches = 10
    Number of processor faces = 46
    Number of boundary faces = 6

Processor 65
    Number of cells = 20
    Number of faces shared with processor 64 = 10
    Number of faces shared with processor 66 = 5
    Number of faces shared with processor 67 = 6
    Number of faces shared with processor 68 = 7
    Number of faces shared with processor 70 = 10
    Number of faces shared with processor 76 = 3
    Number of faces shared with processor 77 = 2
    Number of processor patches = 7
    Number of processor faces = 43
    Number of boundary faces = 11

Processor 66
    Number of cells = 20
    Number of faces shared with processor 64 = 5
    Number of faces shared with processor 65 = 5
    Number of faces shared with processor 67 = 10
    Number of faces shared with processor 86 = 4
    Number of processor patches = 4
    Number of processor faces = 24
    Number of boundary faces = 24

Processor 67
    Number of cells = 20
    Number of faces shared with processor 64 = 4
    Number of faces shared with processor 65 = 6
    Number of faces shared with processor 66 = 10
    Number of faces shared with processor 76 = 6
    Number of faces shared with processor 77 = 4
    Number of faces shared with processor 87 = 4
    Number of processor patches = 6
    Number of processor faces = 34
    Number of boundary faces = 14

Processor 68
    Number of cells = 20
    Number of faces shared with processor 65 = 7
    Number of faces shared with processor 69 = 10
    Number of faces shared with processor 70 = 11
    Number of faces shared with processor 71 = 1
    Number of faces shared with processor 73 = 4
    Number of faces shared with processor 74 = 6
    Number of faces shared with processor 76 = 1
    Number of faces shared with processor 109 = 4
    Number of processor patches = 8
    Number of processor faces = 44
    Number of boundary faces = 8

Processor 69
    Number of cells = 20
    Number of faces shared with processor 64 = 6
    Number of faces shared with processor 68 = 10
    Number of faces shared with processor 71 = 8
    Number of faces shared with processor 73 = 6
    Number of faces shared with processor 75 = 4
    Number of faces shared with processor 82 = 4
    Number of faces shared with processor 83 = 4
    Number of faces shared with processor 109 = 2
    Number of faces shared with processor 110 = 4
    Number of processor patches = 9
    Number of processor faces = 48
    Number of boundary faces = 0

Processor 70
    Number of cells = 20
    Number of faces shared with processor 64 = 2
    Number of faces shared with processor 65 = 10
    Number of faces shared with processor 68 = 11
    Number of faces shared with processor 71 = 9
    Number of faces shared with processor 108 = 4
    Number of processor patches = 5
    Number of processor faces = 36
    Number of boundary faces = 18

Processor 71
    Number of cells = 20
    Number of faces shared with processor 64 = 6
    Number of faces shared with processor 68 = 1
    Number of faces shared with processor 69 = 8
    Number of faces shared with processor 70 = 9
    Number of faces shared with processor 82 = 5
    Number of faces shared with processor 83 = 2
    Number of faces shared with processor 108 = 2
    Number of faces shared with processor 111 = 4
    Number of processor patches = 8
    Number of processor faces = 37
    Number of boundary faces = 11

Processor 72
    Number of cells = 20
    Number of faces shared with processor 2 = 10
    Number of faces shared with processor 73 = 10
    Number of faces shared with processor 74 = 4
    Number of faces shared with processor 75 = 6
    Number of faces shared with processor 95 = 4
    Number of faces shared with processor 117 = 6
    Number of faces shared with processor 118 = 4
    Number of processor patches = 7
    Number of processor faces = 44
    Number of boundary faces = 4

Processor 73
    Number of cells = 20
    Number of faces shared with processor 68 = 4
    Number of faces shared with processor 69 = 6
    Number of faces shared with processor 72 = 10
    Number of faces shared with processor 74 = 6
    Number of faces shared with processor 75 = 4
    Number of faces shared with processor 95 = 4
    Number of faces shared with processor 116 = 6
    Number of faces shared with processor 119 = 4
    Number of processor patches = 8
    Number of processor faces = 44
    Number of boundary faces = 4

Processor 74
    Number of cells = 20
    Number of faces shared with processor 0 = 3
    Number of faces shared with processor 68 = 6
    Number of faces shared with processor 72 = 4
    Number of faces shared with processor 73 = 6
    Number of faces shared with processor 75 = 11
    Number of faces shared with processor 76 = 6
    Number of faces shared with processor 77 = 2
    Number of faces shared with processor 78 = 8
    Number of faces shared with processor 79 = 1
    Number of processor patches = 9
    Number of processor faces = 47
    Number of boundary faces = 7

Processor 75
    Number of cells = 20
    Number of faces shared with processor 0 = 6
    Number of faces shared with processor 69 = 4
    Number of faces shared with processor 72 = 6
    Number of faces shared with processor 73 = 4
    Number of faces shared with processor 74 = 11
    Number of faces shared with processor 77 = 8
    Number of faces shared with processor 79 = 6
    Number of faces shared with processor 94 = 7
    Number of processor patches = 8
    Number of processor faces = 52
    Number of boundary faces = 0

Processor 76
    Number of cells = 20
    Number of faces shared with processor 65 = 3
    Number of faces shared with processor 67 = 6
    Number of faces shared with processor 68 = 1
    Number of faces shared with processor 74 = 6
    Number of faces shared with processor 77 = 10
    Number of faces shared with processor 78 = 9
    Number of faces shared with processor 79 = 1
    Number of processor patches = 7
    Number of processor faces = 36
    Number of boundary faces = 14

Processor 77
    Number of cells = 20
    Number of faces shared with processor 64 = 4
    Number of faces shared with processor 65 = 2
    Number of faces shared with processor 67 = 4
    Number of faces shared with processor 74 = 2
    Number of faces shared with processor 75 = 8
    Number of faces shared with processor 76 = 10
    Number of faces shared with processor 79 = 9
    Number of faces shared with processor 89 = 7
    Number of faces shared with processor 94 = 2
    Number of processor patches = 9
    Number of processor faces = 48
    Number of boundary faces = 4

Processor 78
    Number of cells = 20
    Number of faces shared with processor 0 = 1
    Number of faces shared with processor 5 = 10
    Number of faces shared with processor 74 = 8
    Number of faces shared with processor 76 = 9
    Number of faces shared with processor 79 = 9
    Number of processor patches = 5
    Number of processor faces = 37
    Number of boundary faces = 15

Processor 79
    Number of cells = 20
    Number of faces shared with processor 4 = 10
    Number of faces shared with processor 74 = 1
    Number of faces shared with processor 75 = 6
    Number of faces shared with processor 76 = 1
    Number of faces shared with processor 77 = 9
    Number of faces shared with processor 78 = 9
    Number of faces shared with processor 88 = 7
    Number of faces shared with processor 89 = 1
    Number of processor patches = 8
    Number of processor faces = 44
    Number of boundary faces = 4

Processor 80
    Number of cells = 20
    Number of faces shared with processor 182 = 2
    Number of faces shared with processor 186 = 1
    Number of faces shared with processor 191 = 1
    Number of faces shared with processor 81 = 9
    Number of faces shared with processor 83 = 7
    Number of faces shared with processor 84 = 11
    Number of faces shared with processor 85 = 2
    Number of faces shared with processor 86 = 3
    Number of faces shared with processor 87 = 3
    Number of faces shared with processor 90 = 4
    Number of faces shared with processor 92 = 5
    Number of processor patches = 11
    Number of processor faces = 48
    Number of boundary faces = 4

Processor 81
    Number of cells = 20
    Number of faces shared with processor 186 = 4
    Number of faces shared with processor 187 = 3
    Number of faces shared with processor 80 = 9
    Number of faces shared with processor 82 = 8
    Number of faces shared with processor 83 = 4
    Number of faces shared with processor 84 = 5
    Number of faces shared with processor 92 = 5
    Number of faces shared with processor 95 = 1
    Number of faces shared with processor 100 = 6
    Number of faces shared with processor 102 = 3
    Number of processor patches = 10
    Number of processor faces = 48
    Number of boundary faces = 4

Processor 82
    Number of cells = 20
    Number of faces shared with processor 69 = 4
    Number of faces shared with processor 71 = 5
    Number of faces shared with processor 81 = 8
    Number of faces shared with processor 83 = 10
    Number of faces shared with processor 95 = 4
    Number of faces shared with processor 101 = 8
    Number of faces shared with processor 102 = 1
    Number of faces shared with processor 103 = 6
    Number of processor patches = 8
    Number of processor faces = 46
    Number of boundary faces = 6

Processor 83
    Number of cells = 20
    Number of faces shared with processor 64 = 3
    Number of faces shared with processor 69 = 4
    Number of faces shared with processor 71 = 2
    Number of faces shared with processor 80 = 7
    Number of faces shared with processor 81 = 4
    Number of faces shared with processor 82 = 10
    Number of faces shared with processor 86 = 6
    Number of faces shared with processor 87 = 6
    Number of faces shared with processor 94 = 5
    Number of processor patches = 9
    Number of processor faces = 47
    Number of boundary faces = 3

Processor 84
    Number of cells = 20
    Number of faces shared with processor 180 = 2
    Number of faces shared with processor 181 = 1
    Number of faces shared with processor 182 = 2
    Number of faces shared with processor 183 = 4
    Number of faces shared with processor 186 = 1
    Number of faces shared with processor 187 = 3
    Number of faces shared with processor 80 = 11
    Number of faces shared with processor 81 = 5
    Number of faces shared with processor 85 = 10
    Number of faces shared with processor 86 = 1
    Number of faces shared with processor 90 = 2
    Number of processor patches = 11
    Number of processor faces = 42
    Number of boundary faces = 8

Processor 85
    Number of cells = 20
    Number of faces shared with processor 180 = 4
    Number of faces shared with processor 181 = 2
    Number of faces shared with processor 80 = 2
    Number of faces shared with processor 84 = 10
    Number of faces shared with processor 86 = 5
    Number of faces shared with processor 87 = 4
    Number of faces shared with processor 90 = 6
    Number of processor patches = 7
    Number of processor faces = 33
    Number of boundary faces = 15

Processor 86
    Number of cells = 20
    Number of faces shared with processor 64 = 3
    Number of faces shared with processor 66 = 4
    Number of faces shared with processor 80 = 3
    Number of faces shared with processor 83 = 6
    Number of faces shared with processor 84 = 1
    Number of faces shared with processor 85 = 5
    Number of faces shared with processor 87 = 9
    Number of processor patches = 7
    Number of processor faces = 31
    Number of boundary faces = 17

Processor 87
    Number of cells = 20
    Number of faces shared with processor 64 = 3
    Number of faces shared with processor 67 = 4
    Number of faces shared with processor 80 = 3
    Number of faces shared with processor 83 = 6
    Number of faces shared with processor 85 = 4
    Number of faces shared with processor 86 = 9
    Number of faces shared with processor 89 = 9
    Number of faces shared with processor 90 = 5
    Number of faces shared with processor 94 = 1
    Number of processor patches = 9
    Number of processor faces = 44
    Number of boundary faces = 6

Processor 88
    Number of cells = 20
    Number of faces shared with processor 16 = 11
    Number of faces shared with processor 79 = 7
    Number of faces shared with processor 89 = 11
    Number of faces shared with processor 91 = 6
    Number of faces shared with processor 93 = 3
    Number of faces shared with processor 94 = 4
    Number of processor patches = 6
    Number of processor faces = 42
    Number of boundary faces = 6

Processor 89
    Number of cells = 20
    Number of faces shared with processor 77 = 7
    Number of faces shared with processor 79 = 1
    Number of faces shared with processor 87 = 9
    Number of faces shared with processor 88 = 11
    Number of faces shared with processor 90 = 3
    Number of faces shared with processor 91 = 3
    Number of faces shared with processor 92 = 2
    Number of faces shared with processor 94 = 8
    Number of processor patches = 8
    Number of processor faces = 44
    Number of boundary faces = 6

Processor 90
    Number of cells = 20
    Number of faces shared with processor 178 = 2
    Number of faces shared with processor 179 = 8
    Number of faces shared with processor 181 = 2
    Number of faces shared with processor 191 = 1
    Number of faces shared with processor 80 = 4
    Number of faces shared with processor 84 = 2
    Number of faces shared with processor 85 = 6
    Number of faces shared with processor 87 = 5
    Number of faces shared with processor 89 = 3
    Number of faces shared with processor 91 = 8
    Number of faces shared with processor 92 = 5
    Number of processor patches = 11
    Number of processor faces = 46
    Number of boundary faces = 6

Processor 91
    Number of cells = 20
    Number of faces shared with processor 17 = 7
    Number of faces shared with processor 177 = 8
    Number of faces shared with processor 179 = 3
    Number of faces shared with processor 88 = 6
    Number of faces shared with processor 89 = 3
    Number of faces shared with processor 90 = 8
    Number of faces shared with processor 92 = 1
    Number of faces shared with processor 93 = 6
    Number of processor patches = 8
    Number of processor faces = 42
    Number of boundary faces = 6

Processor 92
    Number of cells = 20
    Number of faces shared with processor 191 = 6
    Number of faces shared with processor 80 = 5
    Number of faces shared with processor 81 = 5
    Number of faces shared with processor 89 = 2
    Number of faces shared with processor 90 = 5
    Number of faces shared with processor 91 = 1
    Number of faces shared with processor 93 = 10
    Number of faces shared with processor 94 = 6
    Number of faces shared with processor 95 = 4
    Number of faces shared with processor 102 = 2
    Number of faces shared with processor 125 = 2
    Number of processor patches = 11
    Number of processor faces = 48
    Number of boundary faces = 0

Processor 93
    Number of cells = 20
    Number of faces shared with processor 17 = 2
    Number of faces shared with processor 20 = 2
    Number of faces shared with processor 21 = 4
    Number of faces shared with processor 22 = 2
    Number of faces shared with processor 190 = 2
    Number of faces shared with processor 191 = 4
    Number of faces shared with processor 88 = 3
    Number of faces shared with processor 91 = 6
    Number of faces shared with processor 92 = 10
    Number of faces shared with processor 94 = 5
    Number of faces shared with processor 95 = 4
    Number of faces shared with processor 125 = 4
    Number of processor patches = 12
    Number of processor faces = 48
    Number of boundary faces = 0

Processor 94
    Number of cells = 20
    Number of faces shared with processor 20 = 4
    Number of faces shared with processor 75 = 7
    Number of faces shared with processor 77 = 2
    Number of faces shared with processor 83 = 5
    Number of faces shared with processor 87 = 1
    Number of faces shared with processor 88 = 4
    Number of faces shared with processor 89 = 8
    Number of faces shared with processor 92 = 6
    Number of faces shared with processor 93 = 5
    Number of faces shared with processor 95 = 8
    Number of processor patches = 10
    Number of processor faces = 50
    Number of boundary faces = 0

Processor 95
    Number of cells = 20
    Number of faces shared with processor 23 = 5
    Number of faces shared with processor 72 = 4
    Number of faces shared with processor 73 = 4
    Number of faces shared with processor 81 = 1
    Number of faces shared with processor 82 = 4
    Number of faces shared with processor 92 = 4
    Number of faces shared with processor 93 = 4
    Number of faces shared with processor 94 = 8
    Number of faces shared with processor 102 = 2
    Number of faces shared with processor 126 = 8
    Number of faces shared with processor 127 = 6
    Number of processor patches = 11
    Number of processor faces = 50
    Number of boundary faces = 0

Processor 96
    Number of cells = 20
    Number of faces shared with processor 144 = 1
    Number of faces shared with processor 148 = 3
    Number of faces shared with processor 97 = 11
    Number of faces shared with processor 99 = 6
    Number of faces shared with processor 100 = 1
    Number of faces shared with processor 101 = 10
    Number of faces shared with processor 104 = 1
    Number of faces shared with processor 111 = 5
    Number of processor patches = 8
    Number of processor faces = 38
    Number of boundary faces = 10

Processor 97
    Number of cells = 20
    Number of faces shared with processor 144 = 2
    Number of faces shared with processor 145 = 1
    Number of faces shared with processor 148 = 2
    Number of faces shared with processor 149 = 1
    Number of faces shared with processor 96 = 11
    Number of faces shared with processor 98 = 8
    Number of faces shared with processor 99 = 2
    Number of faces shared with processor 100 = 3
    Number of faces shared with processor 102 = 3
    Number of faces shared with processor 103 = 10
    Number of faces shared with processor 104 = 2
    Number of faces shared with processor 110 = 4
    Number of faces shared with processor 120 = 5
    Number of faces shared with processor 124 = 1
    Number of faces shared with processor 126 = 1
    Number of processor patches = 15
    Number of processor faces = 56
    Number of boundary faces = 0

Processor 98
    Number of cells = 20
    Number of faces shared with processor 144 = 2
    Number of faces shared with processor 148 = 8
    Number of faces shared with processor 149 = 5
    Number of faces shared with processor 97 = 8
    Number of faces shared with processor 99 = 10
    Number of faces shared with processor 102 = 2
    Number of faces shared with processor 121 = 3
    Number of faces shared with processor 122 = 9
    Number of processor patches = 8
    Number of processor faces = 47
    Number of boundary faces = 5

Processor 99
    Number of cells = 20
    Number of faces shared with processor 148 = 8
    Number of faces shared with processor 96 = 6
    Number of faces shared with processor 97 = 2
    Number of faces shared with processor 98 = 10
    Number of faces shared with processor 104 = 4
    Number of faces shared with processor 106 = 4
    Number of faces shared with processor 107 = 4
    Number of faces shared with processor 121 = 3
    Number of processor patches = 8
    Number of processor faces = 41
    Number of boundary faces = 13

Processor 100
    Number of cells = 20
    Number of faces shared with processor 144 = 1
    Number of faces shared with processor 145 = 7
    Number of faces shared with processor 186 = 2
    Number of faces shared with processor 187 = 4
    Number of faces shared with processor 81 = 6
    Number of faces shared with processor 96 = 1
    Number of faces shared with processor 97 = 3
    Number of faces shared with processor 101 = 11
    Number of faces shared with processor 102 = 7
    Number of faces shared with processor 103 = 5
    Number of processor patches = 10
    Number of processor faces = 47
    Number of boundary faces = 7

Processor 101
    Number of cells = 20
    Number of faces shared with processor 82 = 8
    Number of faces shared with processor 96 = 10
    Number of faces shared with processor 100 = 11
    Number of faces shared with processor 103 = 9
    Number of faces shared with processor 111 = 4
    Number of processor patches = 5
    Number of processor faces = 42
    Number of boundary faces = 10

Processor 102
    Number of cells = 20
    Number of faces shared with processor 144 = 1
    Number of faces shared with processor 145 = 2
    Number of faces shared with processor 154 = 2
    Number of faces shared with processor 186 = 2
    Number of faces shared with processor 190 = 2
    Number of faces shared with processor 81 = 3
    Number of faces shared with processor 82 = 1
    Number of faces shared with processor 92 = 2
    Number of faces shared with processor 95 = 2
    Number of faces shared with processor 97 = 3
    Number of faces shared with processor 98 = 2
    Number of faces shared with processor 100 = 7
    Number of faces shared with processor 103 = 10
    Number of faces shared with processor 124 = 6
    Number of faces shared with processor 125 = 6
    Number of faces shared with processor 127 = 1
    Number of processor patches = 16
    Number of processor faces = 52
    Number of boundary faces = 0

Processor 103
    Number of cells = 20
    Number of faces shared with processor 82 = 6
    Number of faces shared with processor 97 = 10
    Number of faces shared with processor 100 = 5
    Number of faces shared with processor 101 = 9
    Number of faces shared with processor 102 = 10
    Number of faces shared with processor 110 = 4
    Number of faces shared with processor 124 = 1
    Number of faces shared with processor 125 = 2
    Number of faces shared with processor 126 = 8
    Number of faces shared with processor 127 = 1
    Number of processor patches = 10
    Number of processor faces = 56
    Number of boundary faces = 0

Processor 104
    Number of cells = 20
    Number of faces shared with processor 96 = 1
    Number of faces shared with processor 97 = 2
    Number of faces shared with processor 99 = 4
    Number of faces shared with processor 105 = 11
    Number of faces shared with processor 106 = 4
    Number of faces shared with processor 107 = 6
    Number of faces shared with processor 110 = 5
    Number of faces shared with processor 111 = 9
    Number of faces shared with processor 115 = 4
    Number of processor patches = 9
    Number of processor faces = 46
    Number of boundary faces = 6

Processor 105
    Number of cells = 20
    Number of faces shared with processor 104 = 11
    Number of faces shared with processor 106 = 6
    Number of faces shared with processor 107 = 4
    Number of faces shared with processor 108 = 6
    Number of faces shared with processor 109 = 8
    Number of faces shared with processor 110 = 2
    Number of faces shared with processor 111 = 1
    Number of faces shared with processor 114 = 3
    Number of faces shared with processor 115 = 2
    Number of processor patches = 9
    Number of processor faces = 43
    Number of boundary faces = 11

Processor 106
    Number of cells = 20
    Number of faces shared with processor 99 = 4
    Number of faces shared with processor 104 = 4
    Number of faces shared with processor 105 = 6
    Number of faces shared with processor 107 = 10
    Number of faces shared with processor 113 = 10
    Number of processor patches = 5
    Number of processor faces = 34
    Number of boundary faces = 14

Processor 107
    Number of cells = 20
    Number of faces shared with processor 99 = 4
    Number of faces shared with processor 104 = 6
    Number of faces shared with processor 105 = 4
    Number of faces shared with processor 106 = 10
    Number of processor patches = 4
    Number of processor faces = 24
    Number of boundary faces = 24

Processor 108
    Number of cells = 20
    Number of faces shared with processor 70 = 4
    Number of faces shared with processor 71 = 2
    Number of faces shared with processor 105 = 6
    Number of faces shared with processor 109 = 9
    Number of faces shared with processor 111 = 10
    Number of processor patches = 5
    Number of processor faces = 31
    Number of boundary faces = 19

Processor 109
    Number of cells = 20
    Number of faces shared with processor 68 = 4
    Number of faces shared with processor 69 = 2
    Number of faces shared with processor 105 = 8
    Number of faces shared with processor 108 = 9
    Number of faces shared with processor 110 = 9
    Number of faces shared with processor 114 = 1
    Number of faces shared with processor 116 = 10
    Number of processor patches = 7
    Number of processor faces = 43
    Number of boundary faces = 9

Processor 110
    Number of cells = 20
    Number of faces shared with processor 69 = 4
    Number of faces shared with processor 97 = 4
    Number of faces shared with processor 103 = 4
    Number of faces shared with processor 104 = 5
    Number of faces shared with processor 105 = 2
    Number of faces shared with processor 109 = 9
    Number of faces shared with processor 111 = 10
    Number of faces shared with processor 116 = 1
    Number of faces shared with processor 119 = 9
    Number of processor patches = 9
    Number of processor faces = 48
    Number of boundary faces = 0

Processor 111
    Number of cells = 20
    Number of faces shared with processor 71 = 4
    Number of faces shared with processor 96 = 5
    Number of faces shared with processor 101 = 4
    Number of faces shared with processor 104 = 9
    Number of faces shared with processor 105 = 1
    Number of faces shared with processor 108 = 10
    Number of faces shared with processor 110 = 10
    Number of processor patches = 7
    Number of processor faces = 43
    Number of boundary faces = 9

Processor 112
    Number of cells = 20
    Number of faces shared with processor 54 = 4
    Number of faces shared with processor 55 = 6
    Number of faces shared with processor 113 = 10
    Number of faces shared with processor 114 = 5
    Number of faces shared with processor 115 = 5
    Number of faces shared with processor 121 = 4
    Number of processor patches = 6
    Number of processor faces = 34
    Number of boundary faces = 14

Processor 113
    Number of cells = 20
    Number of faces shared with processor 106 = 10
    Number of faces shared with processor 112 = 10
    Number of faces shared with processor 114 = 4
    Number of faces shared with processor 115 = 6
    Number of faces shared with processor 121 = 4
    Number of processor patches = 5
    Number of processor faces = 34
    Number of boundary faces = 14

Processor 114
    Number of cells = 20
    Number of faces shared with processor 54 = 4
    Number of faces shared with processor 55 = 1
    Number of faces shared with processor 105 = 3
    Number of faces shared with processor 109 = 1
    Number of faces shared with processor 112 = 5
    Number of faces shared with processor 113 = 4
    Number of faces shared with processor 115 = 11
    Number of faces shared with processor 116 = 6
    Number of faces shared with processor 117 = 8
    Number of faces shared with processor 118 = 3
    Number of faces shared with processor 119 = 1
    Number of processor patches = 11
    Number of processor faces = 47
    Number of boundary faces = 7

Processor 115
    Number of cells = 20
    Number of faces shared with processor 55 = 4
    Number of faces shared with processor 104 = 4
    Number of faces shared with processor 105 = 2
    Number of faces shared with processor 112 = 5
    Number of faces shared with processor 113 = 6
    Number of faces shared with processor 114 = 11
    Number of faces shared with processor 118 = 4
    Number of faces shared with processor 119 = 9
    Number of faces shared with processor 120 = 5
    Number of faces shared with processor 121 = 2
    Number of processor patches = 10
    Number of processor faces = 52
    Number of boundary faces = 0

Processor 116
    Number of cells = 20
    Number of faces shared with processor 73 = 6
    Number of faces shared with processor 109 = 10
    Number of faces shared with processor 110 = 1
    Number of faces shared with processor 114 = 6
    Number of faces shared with processor 117 = 9
    Number of faces shared with processor 119 = 10
    Number of processor patches = 6
    Number of processor faces = 42
    Number of boundary faces = 8

Processor 117
    Number of cells = 20
    Number of faces shared with processor 49 = 4
    Number of faces shared with processor 51 = 6
    Number of faces shared with processor 54 = 1
    Number of faces shared with processor 72 = 6
    Number of faces shared with processor 114 = 8
    Number of faces shared with processor 116 = 9
    Number of faces shared with processor 118 = 9
    Number of processor patches = 7
    Number of processor faces = 43
    Number of boundary faces = 9

Processor 118
    Number of cells = 20
    Number of faces shared with processor 48 = 6
    Number of faces shared with processor 51 = 4
    Number of faces shared with processor 72 = 4
    Number of faces shared with processor 114 = 3
    Number of faces shared with processor 115 = 4
    Number of faces shared with processor 117 = 9
    Number of faces shared with processor 119 = 10
    Number of faces shared with processor 126 = 4
    Number of faces shared with processor 127 = 4
    Number of processor patches = 9
    Number of processor faces = 48
    Number of boundary faces = 0

Processor 119
    Number of cells = 20
    Number of faces shared with processor 73 = 4
    Number of faces shared with processor 110 = 9
    Number of faces shared with processor 114 = 1
    Number of faces shared with processor 115 = 9
    Number of faces shared with processor 116 = 10
    Number of faces shared with processor 118 = 10
    Number of faces shared with processor 120 = 3
    Number of faces shared with processor 126 = 6
    Number of processor patches = 8
    Number of processor faces = 52
    Number of boundary faces = 0

Processor 120
    Number of cells = 20
    Number of faces shared with processor 38 = 5
    Number of faces shared with processor 97 = 5
    Number of faces shared with processor 115 = 5
    Number of faces shared with processor 119 = 3
    Number of faces shared with processor 121 = 10
    Number of faces shared with processor 122 = 4
    Number of faces shared with processor 123 = 4
    Number of faces shared with processor 124 = 6
    Number of faces shared with processor 126 = 4
    Number of faces shared with processor 127 = 8
    Number of processor patches = 10
    Number of processor faces = 54
    Number of boundary faces = 0

Processor 121
    Number of cells = 20
    Number of faces shared with processor 37 = 4
    Number of faces shared with processor 98 = 3
    Number of faces shared with processor 99 = 3
    Number of faces shared with processor 112 = 4
    Number of faces shared with processor 113 = 4
    Number of faces shared with processor 115 = 2
    Number of faces shared with processor 120 = 10
    Number of faces shared with processor 122 = 6
    Number of faces shared with processor 123 = 4
    Number of processor patches = 9
    Number of processor faces = 40
    Number of boundary faces = 8

Processor 122
    Number of cells = 20
    Number of faces shared with processor 149 = 2
    Number of faces shared with processor 159 = 6
    Number of faces shared with processor 98 = 9
    Number of faces shared with processor 120 = 4
    Number of faces shared with processor 121 = 6
    Number of faces shared with processor 123 = 12
    Number of faces shared with processor 124 = 6
    Number of processor patches = 7
    Number of processor faces = 45
    Number of boundary faces = 5

Processor 123
    Number of cells = 20
    Number of faces shared with processor 158 = 6
    Number of faces shared with processor 159 = 2
    Number of faces shared with processor 36 = 4
    Number of faces shared with processor 37 = 2
    Number of faces shared with processor 38 = 1
    Number of faces shared with processor 39 = 2
    Number of faces shared with processor 120 = 4
    Number of faces shared with processor 121 = 4
    Number of faces shared with processor 122 = 12
    Number of faces shared with processor 124 = 4
    Number of processor patches = 10
    Number of processor faces = 41
    Number of boundary faces = 7

Processor 124
    Number of cells = 20
    Number of faces shared with processor 154 = 3
    Number of faces shared with processor 155 = 4
    Number of faces shared with processor 158 = 2
    Number of faces shared with processor 33 = 4
    Number of faces shared with processor 39 = 2
    Number of faces shared with processor 97 = 1
    Number of faces shared with processor 102 = 6
    Number of faces shared with processor 103 = 1
    Number of faces shared with processor 120 = 6
    Number of faces shared with processor 122 = 6
    Number of faces shared with processor 123 = 4
    Number of faces shared with processor 125 = 8
    Number of faces shared with processor 127 = 5
    Number of processor patches = 13
    Number of processor faces = 52
    Number of boundary faces = 0

Processor 125
    Number of cells = 20
    Number of faces shared with processor 22 = 2
    Number of faces shared with processor 154 = 1
    Number of faces shared with processor 155 = 2
    Number of faces shared with processor 33 = 4
    Number of faces shared with processor 190 = 6
    Number of faces shared with processor 92 = 2
    Number of faces shared with processor 93 = 4
    Number of faces shared with processor 102 = 6
    Number of faces shared with processor 103 = 2
    Number of faces shared with processor 124 = 8
    Number of faces shared with processor 126 = 2
    Number of faces shared with processor 127 = 11
    Number of processor patches = 12
    Number of processor faces = 50
    Number of boundary faces = 0

Processor 126
    Number of cells = 20
    Number of faces shared with processor 35 = 4
    Number of faces shared with processor 95 = 8
    Number of faces shared with processor 97 = 1
    Number of faces shared with processor 103 = 8
    Number of faces shared with processor 118 = 4
    Number of faces shared with processor 119 = 6
    Number of faces shared with processor 120 = 4
    Number of faces shared with processor 125 = 2
    Number of faces shared with processor 127 = 11
    Number of processor patches = 9
    Number of processor faces = 48
    Number of boundary faces = 0

Processor 127
    Number of cells = 20
    Number of faces shared with processor 23 = 1
    Number of faces shared with processor 33 = 4
    Number of faces shared with processor 35 = 4
    Number of faces shared with processor 95 = 6
    Number of faces shared with processor 102 = 1
    Number of faces shared with processor 103 = 1
    Number of faces shared with processor 118 = 4
    Number of faces shared with processor 120 = 8
    Number of faces shared with processor 124 = 5
    Number of faces shared with processor 125 = 11
    Number of faces shared with processor 126 = 11
    Number of processor patches = 11
    Number of processor faces = 56
    Number of boundary faces = 0

Processor 128
    Number of cells = 20
    Number of faces shared with processor 129 = 9
    Number of faces shared with processor 130 = 4
    Number of faces shared with processor 131 = 5
    Number of faces shared with processor 132 = 1
    Number of faces shared with processor 133 = 11
    Number of faces shared with processor 164 = 4
    Number of faces shared with processor 324 = 4
    Number of faces shared with processor 325 = 4
    Number of faces shared with processor 333 = 1
    Number of processor patches = 9
    Number of processor faces = 43
    Number of boundary faces = 9

Processor 129
    Number of cells = 20
    Number of faces shared with processor 128 = 9
    Number of faces shared with processor 130 = 6
    Number of faces shared with processor 131 = 5
    Number of faces shared with processor 132 = 4
    Number of faces shared with processor 146 = 2
    Number of faces shared with processor 147 = 5
    Number of faces shared with processor 164 = 6
    Number of processor patches = 7
    Number of processor faces = 37
    Number of boundary faces = 11

Processor 130
    Number of cells = 20
    Number of faces shared with processor 128 = 4
    Number of faces shared with processor 129 = 6
    Number of faces shared with processor 131 = 10
    Number of faces shared with processor 136 = 6
    Number of faces shared with processor 137 = 4
    Number of faces shared with processor 147 = 2
    Number of faces shared with processor 152 = 2
    Number of faces shared with processor 166 = 4
    Number of faces shared with processor 167 = 6
    Number of faces shared with processor 327 = 4
    Number of processor patches = 10
    Number of processor faces = 48
    Number of boundary faces = 0

Processor 131
    Number of cells = 20
    Number of faces shared with processor 128 = 5
    Number of faces shared with processor 129 = 5
    Number of faces shared with processor 130 = 10
    Number of faces shared with processor 132 = 10
    Number of faces shared with processor 133 = 5
    Number of faces shared with processor 136 = 4
    Number of faces shared with processor 137 = 5
    Number of faces shared with processor 146 = 2
    Number of faces shared with processor 147 = 1
    Number of faces shared with processor 152 = 1
    Number of faces shared with processor 327 = 4
    Number of processor patches = 11
    Number of processor faces = 52
    Number of boundary faces = 0

Processor 132
    Number of cells = 20
    Number of faces shared with processor 128 = 1
    Number of faces shared with processor 129 = 4
    Number of faces shared with processor 131 = 10
    Number of faces shared with processor 133 = 10
    Number of faces shared with processor 134 = 5
    Number of faces shared with processor 135 = 4
    Number of faces shared with processor 136 = 1
    Number of faces shared with processor 142 = 5
    Number of faces shared with processor 143 = 1
    Number of faces shared with processor 146 = 3
    Number of faces shared with processor 150 = 2
    Number of faces shared with processor 151 = 2
    Number of faces shared with processor 152 = 2
    Number of processor patches = 13
    Number of processor faces = 50
    Number of boundary faces = 4

Processor 133
    Number of cells = 20
    Number of faces shared with processor 128 = 11
    Number of faces shared with processor 131 = 5
    Number of faces shared with processor 132 = 10
    Number of faces shared with processor 134 = 5
    Number of faces shared with processor 135 = 6
    Number of faces shared with processor 143 = 4
    Number of faces shared with processor 332 = 4
    Number of faces shared with processor 333 = 3
    Number of processor patches = 8
    Number of processor faces = 48
    Number of boundary faces = 6

Processor 134
    Number of cells = 20
    Number of faces shared with processor 132 = 5
    Number of faces shared with processor 133 = 5
    Number of faces shared with processor 135 = 10
    Number of faces shared with processor 142 = 4
    Number of faces shared with processor 143 = 6
    Number of faces shared with processor 150 = 1
    Number of faces shared with processor 151 = 3
    Number of faces shared with processor 332 = 4
    Number of processor patches = 8
    Number of processor faces = 38
    Number of boundary faces = 10

Processor 135
    Number of cells = 20
    Number of faces shared with processor 132 = 4
    Number of faces shared with processor 133 = 6
    Number of faces shared with processor 134 = 10
    Number of faces shared with processor 150 = 4
    Number of faces shared with processor 332 = 1
    Number of faces shared with processor 333 = 3
    Number of processor patches = 6
    Number of processor faces = 28
    Number of boundary faces = 20

Processor 136
    Number of cells = 20
    Number of faces shared with processor 130 = 6
    Number of faces shared with processor 131 = 4
    Number of faces shared with processor 132 = 1
    Number of faces shared with processor 137 = 9
    Number of faces shared with processor 138 = 10
    Number of faces shared with processor 139 = 1
    Number of faces shared with processor 142 = 4
    Number of faces shared with processor 152 = 4
    Number of faces shared with processor 153 = 3
    Number of faces shared with processor 161 = 6
    Number of processor patches = 10
    Number of processor faces = 48
    Number of boundary faces = 0

Processor 137
    Number of cells = 20
    Number of faces shared with processor 130 = 4
    Number of faces shared with processor 131 = 5
    Number of faces shared with processor 136 = 9
    Number of faces shared with processor 139 = 9
    Number of faces shared with processor 140 = 2
    Number of faces shared with processor 142 = 4
    Number of faces shared with processor 143 = 6
    Number of faces shared with processor 163 = 4
    Number of faces shared with processor 320 = 8
    Number of faces shared with processor 330 = 1
    Number of processor patches = 10
    Number of processor faces = 52
    Number of boundary faces = 0

Processor 138
    Number of cells = 20
    Number of faces shared with processor 136 = 10
    Number of faces shared with processor 139 = 10
    Number of faces shared with processor 141 = 6
    Number of faces shared with processor 142 = 3
    Number of faces shared with processor 153 = 7
    Number of faces shared with processor 157 = 1
    Number of faces shared with processor 161 = 4
    Number of faces shared with processor 163 = 2
    Number of faces shared with processor 241 = 2
    Number of faces shared with processor 242 = 2
    Number of faces shared with processor 243 = 5
    Number of processor patches = 11
    Number of processor faces = 52
    Number of boundary faces = 0

Processor 139
    Number of cells = 20
    Number of faces shared with processor 136 = 1
    Number of faces shared with processor 137 = 9
    Number of faces shared with processor 138 = 10
    Number of faces shared with processor 140 = 4
[...]
    Number of faces shared with processor 499 = 6
    Number of faces shared with processor 500 = 1
    Number of faces shared with processor 501 = 9
    Number of faces shared with processor 502 = 9
    Number of processor patches = 9
    Number of processor faces = 44
    Number of boundary faces = 4

Processor 504
    Number of cells = 20
    Number of faces shared with processor 273 = 4
    Number of faces shared with processor 481 = 4
    Number of faces shared with processor 505 = 10
    Number of faces shared with processor 506 = 10
    Number of processor patches = 4
    Number of processor faces = 28
    Number of boundary faces = 20

Processor 505
    Number of cells = 20
    Number of faces shared with processor 272 = 4
    Number of faces shared with processor 483 = 4
    Number of faces shared with processor 500 = 6
    Number of faces shared with processor 501 = 4
    Number of faces shared with processor 504 = 10
    Number of faces shared with processor 507 = 10
    Number of processor patches = 6
    Number of processor faces = 38
    Number of boundary faces = 10

Processor 506
    Number of cells = 20
    Number of faces shared with processor 274 = 4
    Number of faces shared with processor 481 = 3
    Number of faces shared with processor 504 = 10
    Number of faces shared with processor 507 = 10
    Number of faces shared with processor 508 = 15
    Number of processor patches = 5
    Number of processor faces = 42
    Number of boundary faces = 10

Processor 507
    Number of cells = 20
    Number of faces shared with processor 274 = 3
    Number of faces shared with processor 483 = 3
    Number of faces shared with processor 484 = 1
    Number of faces shared with processor 500 = 3
    Number of faces shared with processor 501 = 6
    Number of faces shared with processor 505 = 10
    Number of faces shared with processor 506 = 10
    Number of faces shared with processor 508 = 1
    Number of faces shared with processor 510 = 7
    Number of faces shared with processor 511 = 8
    Number of processor patches = 10
    Number of processor faces = 52
    Number of boundary faces = 0

Processor 508
    Number of cells = 20
    Number of faces shared with processor 274 = 1
    Number of faces shared with processor 279 = 3
    Number of faces shared with processor 483 = 1
    Number of faces shared with processor 486 = 4
    Number of faces shared with processor 506 = 15
    Number of faces shared with processor 507 = 1
    Number of faces shared with processor 509 = 10
    Number of faces shared with processor 510 = 6
    Number of faces shared with processor 511 = 3
    Number of processor patches = 9
    Number of processor faces = 44
    Number of boundary faces = 10

Processor 509
    Number of cells = 20
    Number of faces shared with processor 279 = 4
    Number of faces shared with processor 434 = 10
    Number of faces shared with processor 486 = 4
    Number of faces shared with processor 508 = 10
    Number of faces shared with processor 510 = 4
    Number of faces shared with processor 511 = 6
    Number of processor patches = 6
    Number of processor faces = 38
    Number of boundary faces = 10

Processor 510
    Number of cells = 20
    Number of faces shared with processor 435 = 4
    Number of faces shared with processor 484 = 7
    Number of faces shared with processor 486 = 1
    Number of faces shared with processor 496 = 4
    Number of faces shared with processor 498 = 2
    Number of faces shared with processor 499 = 4
    Number of faces shared with processor 507 = 7
    Number of faces shared with processor 508 = 6
    Number of faces shared with processor 509 = 4
    Number of faces shared with processor 511 = 9
    Number of processor patches = 10
    Number of processor faces = 48
    Number of boundary faces = 0

Processor 511
    Number of cells = 20
    Number of faces shared with processor 274 = 1
    Number of faces shared with processor 276 = 8
    Number of faces shared with processor 435 = 6
    Number of faces shared with processor 496 = 6
    Number of faces shared with processor 498 = 4
    Number of faces shared with processor 500 = 1
    Number of faces shared with processor 507 = 8
    Number of faces shared with processor 508 = 3
    Number of faces shared with processor 509 = 6
    Number of faces shared with processor 510 = 9
    Number of processor patches = 10
    Number of processor faces = 52
    Number of boundary faces = 0

Number of processor faces = 11391
Max number of cells = 20 (0% above average 20)
Max number of processor patches = 16 (89.6296% above average 8.4375)
Max number of faces between processors = 56 (25.8537% above average 44.4961)

Time = 0

Processor 0: field transfer
Processor 1: field transfer
Processor 2: field transfer
Processor 3: field transfer
Processor 4: field transfer
Processor 5: field transfer
Processor 6: field transfer
Processor 7: field transfer
Processor 8: field transfer
Processor 9: field transfer
Processor 10: field transfer
Processor 11: field transfer
Processor 12: field transfer
Processor 13: field transfer
Processor 14: field transfer
Processor 15: field transfer
Processor 16: field transfer
Processor 17: field transfer
Processor 18: field transfer
Processor 19: field transfer
Processor 20: field transfer
Processor 21: field transfer
Processor 22: field transfer
Processor 23: field transfer
Processor 24: field transfer
Processor 25: field transfer
Processor 26: field transfer
Processor 27: field transfer
Processor 28: field transfer
Processor 29: field transfer
Processor 30: field transfer
Processor 31: field transfer
Processor 32: field transfer
Processor 33: field transfer
Processor 34: field transfer
Processor 35: field transfer
Processor 36: field transfer
Processor 37: field transfer
Processor 38: field transfer
Processor 39: field transfer
Processor 40: field transfer
Processor 41: field transfer
Processor 42: field transfer
Processor 43: field transfer
Processor 44: field transfer
Processor 45: field transfer
Processor 46: field transfer
Processor 47: field transfer
Processor 48: field transfer
Processor 49: field transfer
Processor 50: field transfer
Processor 51: field transfer
Processor 52: field transfer
Processor 53: field transfer
Processor 54: field transfer
Processor 55: field transfer
Processor 56: field transfer
Processor 57: field transfer
Processor 58: field transfer
Processor 59: field transfer
Processor 60: field transfer
Processor 61: field transfer
Processor 62: field transfer
Processor 63: field transfer
Processor 64: field transfer
Processor 65: field transfer
Processor 66: field transfer
Processor 67: field transfer
Processor 68: field transfer
Processor 69: field transfer
Processor 70: field transfer
Processor 71: field transfer
Processor 72: field transfer
Processor 73: field transfer
Processor 74: field transfer
Processor 75: field transfer
Processor 76: field transfer
Processor 77: field transfer
Processor 78: field transfer
Processor 79: field transfer
Processor 80: field transfer
Processor 81: field transfer
Processor 82: field transfer
Processor 83: field transfer
Processor 84: field transfer
Processor 85: field transfer
Processor 86: field transfer
Processor 87: field transfer
Processor 88: field transfer
Processor 89: field transfer
Processor 90: field transfer
Processor 91: field transfer
Processor 92: field transfer
Processor 93: field transfer
Processor 94: field transfer
Processor 95: field transfer
Processor 96: field transfer
Processor 97: field transfer
Processor 98: field transfer
Processor 99: field transfer
Processor 100: field transfer
Processor 101: field transfer
Processor 102: field transfer
Processor 103: field transfer
Processor 104: field transfer
Processor 105: field transfer
Processor 106: field transfer
Processor 107: field transfer
Processor 108: field transfer
Processor 109: field transfer
Processor 110: field transfer
Processor 111: field transfer
Processor 112: field transfer
Processor 113: field transfer
Processor 114: field transfer
Processor 115: field transfer
Processor 116: field transfer
Processor 117: field transfer
Processor 118: field transfer
Processor 119: field transfer
Processor 120: field transfer
Processor 121: field transfer
Processor 122: field transfer
Processor 123: field transfer
Processor 124: field transfer
Processor 125: field transfer
Processor 126: field transfer
Processor 127: field transfer
Processor 128: field transfer
Processor 129: field transfer
Processor 130: field transfer
Processor 131: field transfer
Processor 132: field transfer
Processor 133: field transfer
Processor 134: field transfer
Processor 135: field transfer
Processor 136: field transfer
Processor 137: field transfer
Processor 138: field transfer
Processor 139: field transfer
Processor 140: field transfer
Processor 141: field transfer
Processor 142: field transfer
Processor 143: field transfer
Processor 144: field transfer
Processor 145: field transfer
Processor 146: field transfer
Processor 147: field transfer
Processor 148: field transfer
Processor 149: field transfer
Processor 150: field transfer
Processor 151: field transfer
Processor 152: field transfer
Processor 153: field transfer
Processor 154: field transfer
Processor 155: field transfer
Processor 156: field transfer
Processor 157: field transfer
Processor 158: field transfer
Processor 159: field transfer
Processor 160: field transfer
Processor 161: field transfer
Processor 162: field transfer
Processor 163: field transfer
Processor 164: field transfer
Processor 165: field transfer
Processor 166: field transfer
Processor 167: field transfer
Processor 168: field transfer
Processor 169: field transfer
Processor 170: field transfer
Processor 171: field transfer
Processor 172: field transfer
Processor 173: field transfer
Processor 174: field transfer
Processor 175: field transfer
Processor 176: field transfer
Processor 177: field transfer
Processor 178: field transfer
Processor 179: field transfer
Processor 180: field transfer
Processor 181: field transfer
Processor 182: field transfer
Processor 183: field transfer
Processor 184: field transfer
Processor 185: field transfer
Processor 186: field transfer
Processor 187: field transfer
Processor 188: field transfer
Processor 189: field transfer
Processor 190: field transfer
Processor 191: field transfer
Processor 192: field transfer
Processor 193: field transfer
Processor 194: field transfer
Processor 195: field transfer
Processor 196: field transfer
Processor 197: field transfer
Processor 198: field transfer
Processor 199: field transfer
Processor 200: field transfer
Processor 201: field transfer
Processor 202: field transfer
Processor 203: field transfer
Processor 204: field transfer
Processor 205: field transfer
Processor 206: field transfer
Processor 207: field transfer
Processor 208: field transfer
Processor 209: field transfer
Processor 210: field transfer
Processor 211: field transfer
Processor 212: field transfer
Processor 213: field transfer
Processor 214: field transfer
Processor 215: field transfer
Processor 216: field transfer
Processor 217: field transfer
Processor 218: field transfer
Processor 219: field transfer
Processor 220: field transfer
Processor 221: field transfer
Processor 222: field transfer
Processor 223: field transfer
Processor 224: field transfer
Processor 225: field transfer
Processor 226: field transfer
Processor 227: field transfer
Processor 228: field transfer
Processor 229: field transfer
Processor 230: field transfer
Processor 231: field transfer
Processor 232: field transfer
Processor 233: field transfer
Processor 234: field transfer
Processor 235: field transfer
Processor 236: field transfer
Processor 237: field transfer
Processor 238: field transfer
Processor 239: field transfer
Processor 240: field transfer
Processor 241: field transfer
Processor 242: field transfer
Processor 243: field transfer
Processor 244: field transfer
Processor 245: field transfer
Processor 246: field transfer
Processor 247: field transfer
Processor 248: field transfer
Processor 249: field transfer
Processor 250: field transfer
Processor 251: field transfer
Processor 252: field transfer
Processor 253: field transfer
Processor 254: field transfer
Processor 255: field transfer
Processor 256: field transfer
Processor 257: field transfer
Processor 258: field transfer
Processor 259: field transfer
Processor 260: field transfer
Processor 261: field transfer
Processor 262: field transfer
Processor 263: field transfer
Processor 264: field transfer
Processor 265: field transfer
Processor 266: field transfer
Processor 267: field transfer
Processor 268: field transfer
Processor 269: field transfer
Processor 270: field transfer
Processor 271: field transfer
Processor 272: field transfer
Processor 273: field transfer
Processor 274: field transfer
Processor 275: field transfer
Processor 276: field transfer
Processor 277: field transfer
Processor 278: field transfer
Processor 279: field transfer
Processor 280: field transfer
Processor 281: field transfer
Processor 282: field transfer
Processor 283: field transfer
Processor 284: field transfer
Processor 285: field transfer
Processor 286: field transfer
Processor 287: field transfer
Processor 288: field transfer
Processor 289: field transfer
Processor 290: field transfer
Processor 291: field transfer
Processor 292: field transfer
Processor 293: field transfer
Processor 294: field transfer
Processor 295: field transfer
Processor 296: field transfer
Processor 297: field transfer
Processor 298: field transfer
Processor 299: field transfer
Processor 300: field transfer
Processor 301: field transfer
Processor 302: field transfer
Processor 303: field transfer
Processor 304: field transfer
Processor 305: field transfer
Processor 306: field transfer
Processor 307: field transfer
Processor 308: field transfer
Processor 309: field transfer
Processor 310: field transfer
Processor 311: field transfer
Processor 312: field transfer
Processor 313: field transfer
Processor 314: field transfer
Processor 315: field transfer
Processor 316: field transfer
Processor 317: field transfer
Processor 318: field transfer
Processor 319: field transfer
Processor 320: field transfer
Processor 321: field transfer
Processor 322: field transfer
Processor 323: field transfer
Processor 324: field transfer
Processor 325: field transfer
Processor 326: field transfer
Processor 327: field transfer
Processor 328: field transfer
Processor 329: field transfer
Processor 330: field transfer
Processor 331: field transfer
Processor 332: field transfer
Processor 333: field transfer
Processor 334: field transfer
Processor 335: field transfer
Processor 336: field transfer
Processor 337: field transfer
Processor 338: field transfer
Processor 339: field transfer
Processor 340: field transfer
Processor 341: field transfer
Processor 342: field transfer
Processor 343: field transfer
Processor 344: field transfer
Processor 345: field transfer
Processor 346: field transfer
Processor 347: field transfer
Processor 348: field transfer
Processor 349: field transfer
Processor 350: field transfer
Processor 351: field transfer
Processor 352: field transfer
Processor 353: field transfer
Processor 354: field transfer
Processor 355: field transfer
Processor 356: field transfer
Processor 357: field transfer
Processor 358: field transfer
Processor 359: field transfer
Processor 360: field transfer
Processor 361: field transfer
Processor 362: field transfer
Processor 363: field transfer
Processor 364: field transfer
Processor 365: field transfer
Processor 366: field transfer
Processor 367: field transfer
Processor 368: field transfer
Processor 369: field transfer
Processor 370: field transfer
Processor 371: field transfer
Processor 372: field transfer
Processor 373: field transfer
Processor 374: field transfer
Processor 375: field transfer
Processor 376: field transfer
Processor 377: field transfer
Processor 378: field transfer
Processor 379: field transfer
Processor 380: field transfer
Processor 381: field transfer
Processor 382: field transfer
Processor 383: field transfer
Processor 384: field transfer
Processor 385: field transfer
Processor 386: field transfer
Processor 387: field transfer
Processor 388: field transfer
Processor 389: field transfer
Processor 390: field transfer
Processor 391: field transfer
Processor 392: field transfer
Processor 393: field transfer
Processor 394: field transfer
Processor 395: field transfer
Processor 396: field transfer
Processor 397: field transfer
Processor 398: field transfer
Processor 399: field transfer
Processor 400: field transfer
Processor 401: field transfer
Processor 402: field transfer
Processor 403: field transfer
Processor 404: field transfer
Processor 405: field transfer
Processor 406: field transfer
Processor 407: field transfer
Processor 408: field transfer
Processor 409: field transfer
Processor 410: field transfer
Processor 411: field transfer
Processor 412: field transfer
Processor 413: field transfer
Processor 414: field transfer
Processor 415: field transfer
Processor 416: field transfer
Processor 417: field transfer
Processor 418: field transfer
Processor 419: field transfer
Processor 420: field transfer
Processor 421: field transfer
Processor 422: field transfer
Processor 423: field transfer
Processor 424: field transfer
Processor 425: field transfer
Processor 426: field transfer
Processor 427: field transfer
Processor 428: field transfer
Processor 429: field transfer
Processor 430: field transfer
Processor 431: field transfer
Processor 432: field transfer
Processor 433: field transfer
Processor 434: field transfer
Processor 435: field transfer
Processor 436: field transfer
Processor 437: field transfer
Processor 438: field transfer
Processor 439: field transfer
Processor 440: field transfer
Processor 441: field transfer
Processor 442: field transfer
Processor 443: field transfer
Processor 444: field transfer
Processor 445: field transfer
Processor 446: field transfer
Processor 447: field transfer
Processor 448: field transfer
Processor 449: field transfer
Processor 450: field transfer
Processor 451: field transfer
Processor 452: field transfer
Processor 453: field transfer
Processor 454: field transfer
Processor 455: field transfer
Processor 456: field transfer
Processor 457: field transfer
Processor 458: field transfer
Processor 459: field transfer
Processor 460: field transfer
Processor 461: field transfer
Processor 462: field transfer
Processor 463: field transfer
Processor 464: field transfer
Processor 465: field transfer
Processor 466: field transfer
Processor 467: field transfer
Processor 468: field transfer
Processor 469: field transfer
Processor 470: field transfer
Processor 471: field transfer
Processor 472: field transfer
Processor 473: field transfer
Processor 474: field transfer
Processor 475: field transfer
Processor 476: field transfer
Processor 477: field transfer
Processor 478: field transfer
Processor 479: field transfer
Processor 480: field transfer
Processor 481: field transfer
Processor 482: field transfer
Processor 483: field transfer
Processor 484: field transfer
Processor 485: field transfer
Processor 486: field transfer
Processor 487: field transfer
Processor 488: field transfer
Processor 489: field transfer
Processor 490: field transfer
Processor 491: field transfer
Processor 492: field transfer
Processor 493: field transfer
Processor 494: field transfer
Processor 495: field transfer
Processor 496: field transfer
Processor 497: field transfer
Processor 498: field transfer
Processor 499: field transfer
Processor 500: field transfer
Processor 501: field transfer
Processor 502: field transfer
Processor 503: field transfer
Processor 504: field transfer
Processor 505: field transfer
Processor 506: field transfer
Processor 507: field transfer
Processor 508: field transfer
Processor 509: field transfer
Processor 510: field transfer
Processor 511: field transfer

End

