/*---------------------------------------------------------------------------*\
  =========                 |
  \\      /  F ield         | OpenFOAM: The Open Source CFD Toolbox
   \\    /   O peration     | Website:  https://openfoam.org
    \\  /    A nd           | Version:  7
     \\/     M anipulation  |
\*---------------------------------------------------------------------------*/
Build  : 7
Exec   : snappyHexMesh -parallel -overwrite
Date   : Sep 11 2020
Time   : 10:37:06
Host   : "openhpc-compute-0"
PID    : 29293
I/O    : uncollated
Case   : /alaska/steveb/hpc-tests/stage/alaska/roce-gcc9-openmpi4-ucx/openfoam/Openfoam_Mbike_16
nProcs : 512
Slaves : 
511
(
"openhpc-compute-0.29294"
"openhpc-compute-0.29295"
"openhpc-compute-0.29296"
"openhpc-compute-0.29297"
"openhpc-compute-0.29298"
"openhpc-compute-0.29299"
"openhpc-compute-0.29300"
"openhpc-compute-0.29301"
"openhpc-compute-0.29302"
"openhpc-compute-0.29303"
"openhpc-compute-0.29304"
"openhpc-compute-0.29306"
"openhpc-compute-0.29305"
"openhpc-compute-0.29307"
"openhpc-compute-0.29308"
"openhpc-compute-0.29310"
"openhpc-compute-0.29309"
"openhpc-compute-0.29311"
"openhpc-compute-0.29312"
"openhpc-compute-0.29314"
"openhpc-compute-0.29313"
"openhpc-compute-0.29315"
"openhpc-compute-0.29317"
"openhpc-compute-0.29319"
"openhpc-compute-0.29316"
"openhpc-compute-0.29320"
"openhpc-compute-0.29322"
"openhpc-compute-0.29324"
"openhpc-compute-0.29321"
"openhpc-compute-0.29325"
"openhpc-compute-0.29326"
"openhpc-compute-1.53261"
"openhpc-compute-1.53262"
"openhpc-compute-1.53263"
"openhpc-compute-1.53266"
"openhpc-compute-1.53267"
"openhpc-compute-1.53265"
"openhpc-compute-1.53264"
"openhpc-compute-1.53273"
"openhpc-compute-1.53277"
"openhpc-compute-1.53271"
"openhpc-compute-1.53272"
"openhpc-compute-1.53284"
"openhpc-compute-1.53281"
"openhpc-compute-1.53279"
"openhpc-compute-1.53278"
"openhpc-compute-1.53288"
"openhpc-compute-1.53286"
"openhpc-compute-1.53283"
"openhpc-compute-1.53282"
"openhpc-compute-1.53297"
"openhpc-compute-1.53295"
"openhpc-compute-1.53287"
"openhpc-compute-1.53285"
"openhpc-compute-1.53301"
"openhpc-compute-1.53300"
"openhpc-compute-1.53296"
"openhpc-compute-1.53293"
"openhpc-compute-1.53305"
"openhpc-compute-1.53304"
"openhpc-compute-1.53303"
"openhpc-compute-1.53298"
"openhpc-compute-1.53306"
"openhpc-compute-2.59275"
"openhpc-compute-2.59276"
"openhpc-compute-2.59277"
"openhpc-compute-2.59278"
"openhpc-compute-2.59281"
"openhpc-compute-2.59282"
"openhpc-compute-2.59280"
"openhpc-compute-2.59279"
"openhpc-compute-2.59286"
"openhpc-compute-2.59285"
"openhpc-compute-2.59283"
"openhpc-compute-2.59284"
"openhpc-compute-2.59289"
"openhpc-compute-2.59290"
"openhpc-compute-2.59288"
"openhpc-compute-2.59287"
"openhpc-compute-2.59294"
"openhpc-compute-2.59293"
"openhpc-compute-2.59292"
"openhpc-compute-2.59291"
"openhpc-compute-2.59298"
"openhpc-compute-2.59296"
"openhpc-compute-2.59297"
"openhpc-compute-2.59295"
"openhpc-compute-2.59301"
"openhpc-compute-2.59300"
"openhpc-compute-2.59302"
"openhpc-compute-2.59299"
"openhpc-compute-2.59306"
"openhpc-compute-2.59304"
"openhpc-compute-2.59305"
"openhpc-compute-2.59303"
"openhpc-compute-3.44698"
"openhpc-compute-3.44700"
"openhpc-compute-3.44701"
"openhpc-compute-3.44703"
"openhpc-compute-3.44720"
"openhpc-compute-3.44719"
"openhpc-compute-3.44716"
"openhpc-compute-3.44718"
"openhpc-compute-3.44724"
"openhpc-compute-3.44723"
"openhpc-compute-3.44721"
"openhpc-compute-3.44722"
"openhpc-compute-3.44727"
"openhpc-compute-3.44726"
"openhpc-compute-3.44725"
"openhpc-compute-3.44728"
"openhpc-compute-3.44731"
"openhpc-compute-3.44730"
"openhpc-compute-3.44729"
"openhpc-compute-3.44732"
"openhpc-compute-3.44735"
"openhpc-compute-3.44734"
"openhpc-compute-3.44733"
"openhpc-compute-3.44736"
"openhpc-compute-3.44739"
"openhpc-compute-3.44737"
"openhpc-compute-3.44738"
"openhpc-compute-3.44740"
"openhpc-compute-3.44742"
"openhpc-compute-3.44741"
"openhpc-compute-3.44743"
"openhpc-compute-3.44744"
"openhpc-compute-4.59474"
"openhpc-compute-4.59475"
"openhpc-compute-4.59476"
"openhpc-compute-4.59477"
"openhpc-compute-4.59481"
"openhpc-compute-4.59478"
"openhpc-compute-4.59480"
"openhpc-compute-4.59479"
"openhpc-compute-4.59487"
"openhpc-compute-4.59482"
"openhpc-compute-4.59483"
"openhpc-compute-4.59484"
"openhpc-compute-4.59491"
"openhpc-compute-4.59488"
"openhpc-compute-4.59485"
"openhpc-compute-4.59486"
"openhpc-compute-4.59499"
"openhpc-compute-4.59490"
"openhpc-compute-4.59489"
"openhpc-compute-4.59492"
"openhpc-compute-4.59507"
"openhpc-compute-4.59494"
"openhpc-compute-4.59495"
"openhpc-compute-4.59497"
"openhpc-compute-4.59512"
"openhpc-compute-4.59504"
"openhpc-compute-4.59505"
"openhpc-compute-4.59506"
"openhpc-compute-4.59513"
"openhpc-compute-4.59509"
"openhpc-compute-4.59511"
"openhpc-compute-4.59510"
"openhpc-compute-5.40389"
"openhpc-compute-5.40390"
"openhpc-compute-5.40391"
"openhpc-compute-5.40392"
"openhpc-compute-5.40396"
"openhpc-compute-5.40393"
"openhpc-compute-5.40394"
"openhpc-compute-5.40395"
"openhpc-compute-5.40400"
"openhpc-compute-5.40397"
"openhpc-compute-5.40398"
"openhpc-compute-5.40399"
"openhpc-compute-5.40404"
"openhpc-compute-5.40403"
"openhpc-compute-5.40402"
"openhpc-compute-5.40401"
"openhpc-compute-5.40408"
"openhpc-compute-5.40407"
"openhpc-compute-5.40406"
"openhpc-compute-5.40405"
"openhpc-compute-5.40412"
"openhpc-compute-5.40411"
"openhpc-compute-5.40410"
"openhpc-compute-5.40409"
"openhpc-compute-5.40416"
"openhpc-compute-5.40415"
"openhpc-compute-5.40414"
"openhpc-compute-5.40413"
"openhpc-compute-5.40420"
"openhpc-compute-5.40419"
"openhpc-compute-5.40418"
"openhpc-compute-5.40417"
"openhpc-compute-6.23952"
"openhpc-compute-6.23953"
"openhpc-compute-6.23954"
"openhpc-compute-6.23955"
"openhpc-compute-6.23959"
"openhpc-compute-6.23958"
"openhpc-compute-6.23957"
"openhpc-compute-6.23956"
"openhpc-compute-6.23965"
"openhpc-compute-6.23966"
"openhpc-compute-6.23960"
"openhpc-compute-6.23961"
"openhpc-compute-6.23969"
"openhpc-compute-6.23970"
"openhpc-compute-6.23962"
"openhpc-compute-6.23963"
"openhpc-compute-6.23974"
"openhpc-compute-6.23973"
"openhpc-compute-6.23964"
"openhpc-compute-6.23967"
"openhpc-compute-6.23978"
"openhpc-compute-6.23977"
"openhpc-compute-6.23968"
"openhpc-compute-6.23971"
"openhpc-compute-6.23981"
"openhpc-compute-6.23980"
"openhpc-compute-6.23972"
"openhpc-compute-6.23976"
"openhpc-compute-6.23983"
"openhpc-compute-6.23982"
"openhpc-compute-6.23975"
"openhpc-compute-6.23979"
"openhpc-compute-7.62841"
"openhpc-compute-7.62842"
"openhpc-compute-7.62843"
"openhpc-compute-7.62844"
"openhpc-compute-7.62845"
"openhpc-compute-7.62846"
"openhpc-compute-7.62848"
"openhpc-compute-7.62847"
"openhpc-compute-7.62849"
"openhpc-compute-7.62850"
"openhpc-compute-7.62851"
"openhpc-compute-7.62852"
"openhpc-compute-7.62856"
"openhpc-compute-7.62855"
"openhpc-compute-7.62854"
"openhpc-compute-7.62853"
"openhpc-compute-7.62860"
"openhpc-compute-7.62859"
"openhpc-compute-7.62857"
"openhpc-compute-7.62858"
"openhpc-compute-7.62865"
"openhpc-compute-7.62863"
"openhpc-compute-7.62861"
"openhpc-compute-7.62862"
"openhpc-compute-7.62869"
"openhpc-compute-7.62868"
"openhpc-compute-7.62867"
"openhpc-compute-7.62866"
"openhpc-compute-7.62872"
"openhpc-compute-7.62871"
"openhpc-compute-7.62873"
"openhpc-compute-7.62870"
"openhpc-compute-8.50970"
"openhpc-compute-8.50971"
"openhpc-compute-8.50972"
"openhpc-compute-8.50973"
"openhpc-compute-8.50976"
"openhpc-compute-8.50975"
"openhpc-compute-8.50974"
"openhpc-compute-8.50977"
"openhpc-compute-8.50979"
"openhpc-compute-8.50982"
"openhpc-compute-8.50981"
"openhpc-compute-8.50980"
"openhpc-compute-8.50983"
"openhpc-compute-8.50986"
"openhpc-compute-8.50985"
"openhpc-compute-8.50984"
"openhpc-compute-8.50990"
"openhpc-compute-8.50989"
"openhpc-compute-8.50988"
"openhpc-compute-8.50987"
"openhpc-compute-8.50994"
"openhpc-compute-8.50993"
"openhpc-compute-8.50992"
"openhpc-compute-8.50991"
"openhpc-compute-8.50998"
"openhpc-compute-8.50996"
"openhpc-compute-8.50997"
"openhpc-compute-8.50995"
"openhpc-compute-8.51001"
"openhpc-compute-8.51000"
"openhpc-compute-8.51002"
"openhpc-compute-8.50999"
"openhpc-compute-9.44152"
"openhpc-compute-9.44157"
"openhpc-compute-9.44153"
"openhpc-compute-9.44154"
"openhpc-compute-9.44158"
"openhpc-compute-9.44162"
"openhpc-compute-9.44156"
"openhpc-compute-9.44155"
"openhpc-compute-9.44163"
"openhpc-compute-9.44166"
"openhpc-compute-9.44165"
"openhpc-compute-9.44164"
"openhpc-compute-9.44167"
"openhpc-compute-9.44170"
"openhpc-compute-9.44168"
"openhpc-compute-9.44169"
"openhpc-compute-9.44171"
"openhpc-compute-9.44175"
"openhpc-compute-9.44172"
"openhpc-compute-9.44173"
"openhpc-compute-9.44174"
"openhpc-compute-9.44179"
"openhpc-compute-9.44176"
"openhpc-compute-9.44177"
"openhpc-compute-9.44178"
"openhpc-compute-9.44184"
"openhpc-compute-9.44180"
"openhpc-compute-9.44181"
"openhpc-compute-9.44182"
"openhpc-compute-9.44186"
"openhpc-compute-9.44183"
"openhpc-compute-9.44185"
"openhpc-compute-10.22716"
"openhpc-compute-10.22717"
"openhpc-compute-10.22718"
"openhpc-compute-10.22719"
"openhpc-compute-10.22722"
"openhpc-compute-10.22720"
"openhpc-compute-10.22721"
"openhpc-compute-10.22723"
"openhpc-compute-10.22725"
"openhpc-compute-10.22726"
"openhpc-compute-10.22728"
"openhpc-compute-10.22724"
"openhpc-compute-10.22731"
"openhpc-compute-10.22732"
"openhpc-compute-10.22730"
"openhpc-compute-10.22729"
"openhpc-compute-10.22735"
"openhpc-compute-10.22736"
"openhpc-compute-10.22734"
"openhpc-compute-10.22733"
"openhpc-compute-10.22739"
"openhpc-compute-10.22741"
"openhpc-compute-10.22738"
"openhpc-compute-10.22737"
"openhpc-compute-10.22743"
"openhpc-compute-10.22745"
"openhpc-compute-10.22742"
"openhpc-compute-10.22740"
"openhpc-compute-10.22747"
"openhpc-compute-10.22748"
"openhpc-compute-10.22746"
"openhpc-compute-10.22744"
"openhpc-compute-11.2561"
"openhpc-compute-11.2562"
"openhpc-compute-11.2563"
"openhpc-compute-11.2564"
"openhpc-compute-11.2568"
"openhpc-compute-11.2567"
"openhpc-compute-11.2565"
"openhpc-compute-11.2566"
"openhpc-compute-11.2572"
"openhpc-compute-11.2571"
"openhpc-compute-11.2569"
"openhpc-compute-11.2570"
"openhpc-compute-11.2576"
"openhpc-compute-11.2573"
"openhpc-compute-11.2574"
"openhpc-compute-11.2575"
"openhpc-compute-11.2580"
"openhpc-compute-11.2577"
"openhpc-compute-11.2578"
"openhpc-compute-11.2579"
"openhpc-compute-11.2584"
"openhpc-compute-11.2581"
"openhpc-compute-11.2583"
"openhpc-compute-11.2582"
"openhpc-compute-11.2588"
"openhpc-compute-11.2586"
"openhpc-compute-11.2587"
"openhpc-compute-11.2585"
"openhpc-compute-11.2592"
"openhpc-compute-11.2591"
"openhpc-compute-11.2590"
"openhpc-compute-11.2589"
"openhpc-compute-12.46762"
"openhpc-compute-12.46763"
"openhpc-compute-12.46764"
"openhpc-compute-12.46765"
"openhpc-compute-12.46769"
"openhpc-compute-12.46766"
"openhpc-compute-12.46767"
"openhpc-compute-12.46768"
"openhpc-compute-12.46777"
"openhpc-compute-12.46770"
"openhpc-compute-12.46771"
"openhpc-compute-12.46772"
"openhpc-compute-12.46781"
"openhpc-compute-12.46776"
"openhpc-compute-12.46775"
"openhpc-compute-12.46774"
"openhpc-compute-12.46785"
"openhpc-compute-12.46780"
"openhpc-compute-12.46778"
"openhpc-compute-12.46779"
"openhpc-compute-12.46789"
"openhpc-compute-12.46784"
"openhpc-compute-12.46783"
"openhpc-compute-12.46782"
"openhpc-compute-12.46793"
"openhpc-compute-12.46788"
"openhpc-compute-12.46787"
"openhpc-compute-12.46786"
"openhpc-compute-12.46794"
"openhpc-compute-12.46792"
"openhpc-compute-12.46791"
"openhpc-compute-12.46790"
"openhpc-compute-13.44906"
"openhpc-compute-13.44907"
"openhpc-compute-13.44908"
"openhpc-compute-13.44912"
"openhpc-compute-13.44911"
"openhpc-compute-13.44910"
"openhpc-compute-13.44909"
"openhpc-compute-13.44918"
"openhpc-compute-13.44915"
"openhpc-compute-13.44914"
"openhpc-compute-13.44913"
"openhpc-compute-13.44921"
"openhpc-compute-13.44919"
"openhpc-compute-13.44916"
"openhpc-compute-13.44917"
"openhpc-compute-13.44925"
"openhpc-compute-13.44923"
"openhpc-compute-13.44920"
"openhpc-compute-13.44922"
"openhpc-compute-13.44929"
"openhpc-compute-13.44927"
"openhpc-compute-13.44924"
"openhpc-compute-13.44926"
"openhpc-compute-13.44933"
"openhpc-compute-13.44930"
"openhpc-compute-13.44928"
"openhpc-compute-13.44931"
"openhpc-compute-13.44939"
"openhpc-compute-13.44937"
"openhpc-compute-13.44932"
"openhpc-compute-13.44938"
"openhpc-compute-13.44940"
"openhpc-compute-14.16897"
"openhpc-compute-14.16898"
"openhpc-compute-14.16899"
"openhpc-compute-14.16900"
"openhpc-compute-14.16901"
"openhpc-compute-14.16902"
"openhpc-compute-14.16903"
"openhpc-compute-14.16904"
"openhpc-compute-14.16905"
"openhpc-compute-14.16906"
"openhpc-compute-14.16907"
"openhpc-compute-14.16908"
"openhpc-compute-14.16909"
"openhpc-compute-14.16912"
"openhpc-compute-14.16913"
"openhpc-compute-14.16910"
"openhpc-compute-14.16911"
"openhpc-compute-14.16915"
"openhpc-compute-14.16917"
"openhpc-compute-14.16914"
"openhpc-compute-14.16916"
"openhpc-compute-14.16919"
"openhpc-compute-14.16921"
"openhpc-compute-14.16918"
"openhpc-compute-14.16920"
"openhpc-compute-14.16923"
"openhpc-compute-14.16927"
"openhpc-compute-14.16922"
"openhpc-compute-14.16924"
"openhpc-compute-14.16926"
"openhpc-compute-14.16928"
"openhpc-compute-14.16925"
"openhpc-compute-15.4873"
"openhpc-compute-15.4874"
"openhpc-compute-15.4878"
"openhpc-compute-15.4875"
"openhpc-compute-15.4879"
"openhpc-compute-15.4877"
"openhpc-compute-15.4880"
"openhpc-compute-15.4876"
"openhpc-compute-15.4882"
"openhpc-compute-15.4881"
"openhpc-compute-15.4887"
"openhpc-compute-15.4883"
"openhpc-compute-15.4885"
"openhpc-compute-15.4884"
"openhpc-compute-15.4891"
"openhpc-compute-15.4886"
"openhpc-compute-15.4889"
"openhpc-compute-15.4888"
"openhpc-compute-15.4895"
"openhpc-compute-15.4890"
"openhpc-compute-15.4893"
"openhpc-compute-15.4892"
"openhpc-compute-15.4899"
"openhpc-compute-15.4894"
"openhpc-compute-15.4898"
"openhpc-compute-15.4896"
"openhpc-compute-15.4903"
"openhpc-compute-15.4897"
"openhpc-compute-15.4902"
"openhpc-compute-15.4900"
"openhpc-compute-15.4904"
"openhpc-compute-15.4901"
)

Pstream initialized with:
    floatTransfer      : 0
    nProcsSimpleSum    : 0
    commsType          : nonBlocking
    polling iterations : 0
sigFpe : Enabling floating point exception trapping (FOAM_SIGFPE).
fileModificationChecking : Monitoring run-time modified files using timeStampMaster (fileModificationSkew 10)
allowSystemOperations : Allowing user-supplied system call operations

// * * * * * * * * * * * * * * * * * * * * * * * * * * * * * * * * * * * * * //
Create time

Create mesh for time = 0

Read mesh in = 0.09 s

Overall mesh bounding box  : (-5 -4 0) (15 4 8)
Relative tolerance         : 1e-06
Absolute matching distance : 2.29783e-05

Reading refinement surfaces.
Read refinement surfaces in = 2.94 s

Reading refinement shells.
Refinement level 4 for all cells inside refinementBox
Read refinement shells in = 0 s

Setting refinement level of surface to be consistent with shells.
Checked shell refinement in = 1.57 s

Reading features.
Read edgeMesh motorBike.eMesh
    points      : 20665
    edges       : 20867
    boundingBox : (-0.241214 -0.337971 -4.232e-05) (1.75115 0.329368 1.21979)

Refinement level according to distance to "motorBike.eMesh" (20665 points, 20867 edges).
    level 6 for all cells within 0 metre.
Read features in = 0.27 s


Determining initial surface intersections
-----------------------------------------

Edge intersection testing:
    Number of edges             : 32256
    Number of edges to retest   : 32256
    Number of intersected edges : 26
Calculated surface intersections in = 0.05 s

Initial mesh : cells:10240  faces:32256  points:11849
Cells per refinement level:
    0	10240

Adding patches for surface regions
----------------------------------

Patch Type                Region                        
----- ----                ------                        
motorBike:

5     wall                motorBike_frt-fairing:001%1   
6     wall                motorBike_windshield:002%2    
7     wall                motorBike_rr-wh-rim:005%5     
8     wall                motorBike_rr-wh-rim:010%10    
9     wall                motorBike_fr-wh-rim:011%11    
10    wall                motorBike_fr-wh-brake-disk:012%12
11    wall                motorBike_frame:016-shadow%13 
12    wall                motorBike_rear-susp:014%14    
13    wall                motorBike_rear-susp:014-shadow%15
14    wall                motorBike_frame:016%16        
15    wall                motorBike_rr-wh-rim:005-shadow%17
16    wall                motorBike_rr-wh-chain-hub:022%22
17    wall                motorBike_rearseat%24         
18    wall                motorBike_frt-fairing%25      
19    wall                motorBike_windshield%26       
20    wall                motorBike_headlights%27       
21    wall                motorBike_driversseat%28      
22    wall                motorBike_rear-body%29        
23    wall                motorBike_fuel-tank%30        
24    wall                motorBike_exhaust%31          
25    wall                motorBike_rr-wh-rim%32        
26    wall                motorBike_fr-mud-guard%33     
27    wall                motorBike_fr-wh-rim%34        
28    wall                motorBike_fr-wh-brake-disk%35 
29    wall                motorBike_fr-brake-caliper%36 
30    wall                motorBike_fr-wh-tyre%37       
31    wall                motorBike_hbars%38            
32    wall                motorBike_fr-forks%39         
33    wall                motorBike_chain%40            
34    wall                motorBike_rr-wh-tyre%41       
35    wall                motorBike_square-dial%42      
36    wall                motorBike_round-dial%43       
37    wall                motorBike_dial-holder%44      
38    wall                motorBike_rear-susp%45        
39    wall                motorBike_rear-brake-lights%46
40    wall                motorBike_rear-light-bracket%47
41    wall                motorBike_frame%48            
42    wall                motorBike_rear-mud-guard%49   
43    wall                motorBike_rear-susp-spring-damp%50
44    wall                motorBike_fairing-inner-plate%51
45    wall                motorBike_clutch-housing%52   
46    wall                motorBike_radiator%53         
47    wall                motorBike_water-pipe%54       
48    wall                motorBike_water-pump%55       
49    wall                motorBike_engine%56           
50    wall                motorBike_rear-shock-link%57  
51    wall                motorBike_rear-brake-fluid-pot-bracket%58
52    wall                motorBike_rear-brake-fluid-pot%59
53    wall                motorBike_footpeg%60          
54    wall                motorBike_rr-wh-chain-hub%61  
55    wall                motorBike_rear-brake-caliper%62
56    wall                motorBike_rider-helmet%65     
57    wall                motorBike_rider-visor%66      
58    wall                motorBike_rider-boots%67      
59    wall                motorBike_rider-gloves%68     
60    wall                motorBike_rider-body%69       
61    wall                motorBike_frame:0%70          
62    wall                motorBike_frt-fairing:001-shadow%74
63    wall                motorBike_windshield-shadow%75
64    wall                motorBike_fr-mud-guard-shadow%81
65    wall                motorBike_fr-wh-brake-disk-shadow%83
66    wall                motorBike_rear-mud-guard-shadow%84
67    wall                motorBike_rear-susp-spring-damp-shadow%85
68    wall                motorBike_radiator-shadow%86  
69    wall                motorBike_rear-shock-link-shadow%87
70    wall                motorBike_rear-brake-fluid-pot-bracket-shadow%88
[11]  Foam::decompositionMethod::New 
[11] {
[11]     numberOfSubdomains 512;
[11]     method          scotch;
[11]     simpleCoeffs
[11]     {
[13]  Foam::decompositionMethod::New 
[13] {
[13]     numberOfSubdomains 512;
[13]     method          scotch;
[13]     simpleCoeffs
[13]     {
[13]         n               ( 4 1 1 );
[15]  Foam::decompositionMethod::New 
[15] {
[15]     numberOfSubdomains 512;
[15]     method          scotch;
[15]     simpleCoeffs
[15]     {
[15]         n               ( 4 1 1 );
[15]         delta           0.001;
[16]  Foam::decompositionMethod::New 
[16] {
[16]     numberOfSubdomains 512;
[16]     method          scotch;
[16]     simpleCoeffs
[16]     {
[16]         n               ( 4 1 1 );
[16]         delta           0.001;
[16]     }
[16]     hierarchicalCoeffs
[16]     {
[25]  Foam::decompositionMethod::New 
[25] {
[25]     numberOfSubdomains 512;
[25]     method          scotch;
[25]     simpleCoeffs
[25]     {
[25]         n               ( 4 1 1 );
[25]         delta           0.001;
[25]     }
[25]     hierarchicalCoeffs
[25]     {
[26]  Foam::decompositionMethod::New 
[26] {
[26]     numberOfSubdomains 512;
[26]     method          scotch;
[26]     simpleCoeffs
[26]     {
[26]         n               ( 4 1 1 );
[26]         delta           0.001;
[26]     }
[26]     hierarchicalCoeffs
[26]     {
[26]         n               ( 3 2 1 );
[26]         delta           0.001;
71    wall                motorBike_rr-wh-chain-hub-shadow%89

Added patches in = 0.08 s

[0]  Foam::decompositionMethod::New 
[0] {
[0]     numberOfSubdomains 512;
[0]     method          scotch;
[0]     simpleCoeffs
[0]     {
[0]         n               ( 4 1 1 );
[0]         delta           0.001;
[0]     }
[0]     hierarchicalCoeffs
[0]     {
[0]         n               ( 3 2 1 );
[0]         delta           0.001;
[0]         order           xyz;
[0]     }
[1]  Foam::decompositionMethod::New 
[1] {
[1]     numberOfSubdomains 512;
[1]     method          scotch;
[1]     simpleCoeffs
[1]     {
[1]         n               ( 4 1 1 );
[1]         delta           0.001;
[1]     }
[1]     hierarchicalCoeffs
[1]     {
[1]         n               ( 3 2 1 );
[1]         delta           0.001;
[1]         order           xyz;
[1]     }
[1]     manualCoeffs
[1]     {
[1]         dataFile        "cellDecomposition";
[1]     }
[1] }
[1] 
[1] Selecting decompositionMethod scotch
[2]  Foam::decompositionMethod::New 
[2] {
[2]     numberOfSubdomains 512;
[2]     method          scotch;
[2]     simpleCoeffs
[2]     {
[2]         n               ( 4 1 1 );
[2]         delta           0.001;
[2]     }
[2]     hierarchicalCoeffs
[2]     {
[2]         n               ( 3 2 1 );
[2]         delta           0.001;
[2]         order           xyz;
[2]     }
[2]     manualCoeffs
[2]     {
[2]         dataFile        "cellDecomposition";
[2]     }
[2] }
[2] 
[2] Selecting decompositionMethod scotch
[3]  Foam::decompositionMethod::New 
[3] {
[3]     numberOfSubdomains 512;
[3]     method          scotch;
[3]     simpleCoeffs
[3]     {
[3]         n               ( 4 1 1 );
[3]         delta           0.001;
[3]     }
[3]     hierarchicalCoeffs
[3]     {
[3]         n               ( 3 2 1 );
[3]         delta           0.001;
[3]         order           xyz;
[3]     }
[3]     manualCoeffs
[3]     {
[3]         dataFile        "cellDecomposition";
[3]     }
[3] }
[3] 
[3] Selecting decompositionMethod scotch
[5]  Foam::decompositionMethod::New 
[5] {
[5]     numberOfSubdomains 512;
[5]     method          scotch;
[5]     simpleCoeffs
[5]     {
[5]         n               ( 4 1 1 );
[5]         delta           0.001;
[5]     }
[5]     hierarchicalCoeffs
[5]     {
[5]         n               ( 3 2 1 );
[5]         delta           0.001;
[5]         order           xyz;
[5]     }
[5]     manualCoeffs
[5]     {
[5]         dataFile        "cellDecomposition";
[5]     }
[5] }
[5] 
[5] Selecting decompositionMethod scotch
[6]  Foam::decompositionMethod::New 
[6] {
[6]     numberOfSubdomains 512;
[6]     method          scotch;
[6]     simpleCoeffs
[6]     {
[6]         n               ( 4 1 1 );
[6]         delta           0.001;
[6]     }
[6]     hierarchicalCoeffs
[6]     {
[6]         n               ( 3 2 1 );
[6]         delta           0.001;
[6]         order           xyz;
[6]     }
[6]     manualCoeffs
[6]     {
[6]         dataFile        "cellDecomposition";
[6]     }
[6] }
[6] 
[6] Selecting decompositionMethod scotch
[7]  Foam::decompositionMethod::New 
[7] {
[7]     numberOfSubdomains 512;
[7]     method          scotch;
[7]     simpleCoeffs
[7]     {
[8]  Foam::decompositionMethod::New 
[8] {
[8]     numberOfSubdomains 512;
[8]     method          scotch;
[8]     simpleCoeffs
[8]     {
[8]         n               ( 4 1 1 );
[8]         delta           0.001;
[8]     }
[8]     hierarchicalCoeffs
[8]     {
[8]         n               ( 3 2 1 );
[8]         delta           0.001;
[8]         order           xyz;
[8]     }
[8]     manualCoeffs
[8]     {
[8]         dataFile        "cellDecomposition";
[8]     }
[8] }
[8] 
[8] Selecting decompositionMethod scotch
[10]  Foam::decompositionMethod::New 
[10] {
[10]     numberOfSubdomains 512;
[10]     method          scotch;
[10]     simpleCoeffs
[10]     {
[10]         n               ( 4 1 1 );
[10]         delta           0.001;
[10]     }
[10]     hierarchicalCoeffs
[10]     {
[10]         n               ( 3 2 1 );
[10]         delta           0.001;
[10]         order           xyz;
[10]     }
[10]     manualCoeffs
[10]     {
[10]         dataFile        "cellDecomposition";
[10]     }
[10] }
[10] 
[10] Selecting decompositionMethod scotch
[26]         order           xyz;
[26]     }
[26]     manualCoeffs
[26]     {
[26]         dataFile        "cellDecomposition";
[26]     }
[26] }
[26] 
[26] Selecting decompositionMethod scotch
[12]  Foam::decompositionMethod::New 
[12] {
[12]     numberOfSubdomains 512;
[12]     method          scotch;
[12]     simpleCoeffs
[12]     {
[12]         n               ( 4 1 1 );
[12]         delta           0.001;
[12]     }
[12]     hierarchicalCoeffs
[12]     {
[12]         n               ( 3 2 1 );
[12]         delta           0.001;
[12]         order           xyz;
[12]     }
[12]     manualCoeffs
[12]     {
[12]         dataFile        "cellDecomposition";
[12]     }
[12] }
[12] 
[12] Selecting decompositionMethod scotch
[11]         n               ( 4 1 1 );
[11]         delta           0.001;
[11]     }
[11]     hierarchicalCoeffs
[11]     {
[11]         n               ( 3 2 1 );
[11]         delta           0.001;
[11]         order           xyz;
[11]     }
[11]     manualCoeffs
[11]     {
[11]         dataFile        "cellDecomposition";
[11]     }
[11] }
[11] 
[11] Selecting decompositionMethod scotch
[14]  Foam::decompositionMethod::New 
[14] {
[14]     numberOfSubdomains 512;
[14]     method          scotch;
[14]     simpleCoeffs
[14]     {
[14]         n               ( 4 1 1 );
[14]         delta           0.001;
[14]     }
[14]     hierarchicalCoeffs
[14]     {
[14]         n               ( 3 2 1 );
[14]         delta           0.001;
[14]         order           xyz;
[14]     }
[14]     manualCoeffs
[14]     {
[14]         dataFile        "cellDecomposition";
[14]     }
[14] }
[14] 
[14] Selecting decompositionMethod scotch
[13]         delta           0.001;
[13]     }
[13]     hierarchicalCoeffs
[13]     {
[13]         n               ( 3 2 1 );
[13]         delta           0.001;
[13]         order           xyz;
[13]     }
[13]     manualCoeffs
[13]     {
[13]         dataFile        "cellDecomposition";
[13]     }
[13] }
[13] 
[13] Selecting decompositionMethod scotch
[15]     }
[15]     hierarchicalCoeffs
[15]     {
[15]         n               ( 3 2 1 );
[15]         delta           0.001;
[15]         order           xyz;
[15]     }
[15]     manualCoeffs
[15]     {
[15]         dataFile        "cellDecomposition";
[15]     }
[15] }
[15] 
[15] Selecting decompositionMethod scotch
[17]  Foam::decompositionMethod::New 
[17] {
[17]     numberOfSubdomains 512;
[17]     method          scotch;
[17]     simpleCoeffs
[17]     {
[17]         n               ( 4 1 1 );
[17]         delta           0.001;
[17]     }
[17]     hierarchicalCoeffs
[17]     {
[17]         n               ( 3 2 1 );
[17]         delta           0.001;
[17]         order           xyz;
[17]     }
[17]     manualCoeffs
[17]     {
[17]         dataFile        "cellDecomposition";
[17]     }
[17] }
[17] 
[17] Selecting decompositionMethod scotch
[18]  Foam::decompositionMethod::New 
[18] {
[18]     numberOfSubdomains 512;
[18]     method          scotch;
[18]     simpleCoeffs
[18]     {
[18]         n               ( 4 1 1 );
[18]         delta           0.001;
[18]     }
[18]     hierarchicalCoeffs
[18]     {
[18]         n               ( 3 2 1 );
[18]         delta           0.001;
[18]         order           xyz;
[18]     }
[18]     manualCoeffs
[18]     {
[18]         dataFile        "cellDecomposition";
[18]     }
[18] }
[18] 
[18] Selecting decompositionMethod scotch
[19]  Foam::decompositionMethod::New 
[19] {
[19]     numberOfSubdomains 512;
[19]     method          scotch;
[19]     simpleCoeffs
[19]     {
[19]         n               ( 4 1 1 );
[19]         delta           0.001;
[19]     }
[19]     hierarchicalCoeffs
[19]     {
[19]         n               ( 3 2 1 );
[19]         delta           0.001;
[19]         order           xyz;
[19]     }
[19]     manualCoeffs
[19]     {
[19]         dataFile        "cellDecomposition";
[19]     }
[19] }
[19] 
[19] Selecting decompositionMethod scotch
[20]  Foam::decompositionMethod::New 
[20] {
[20]     numberOfSubdomains 512;
[20]     method          scotch;
[20]     simpleCoeffs
[20]     {
[20]         n               ( 4 1 1 );
[20]         delta           0.001;
[20]     }
[20]     hierarchicalCoeffs
[20]     {
[20]         n               ( 3 2 1 );
[20]         delta           0.001;
[20]         order           xyz;
[20]     }
[20]     manualCoeffs
[20]     {
[20]         dataFile        "cellDecomposition";
[20]     }
[20] }
[20] 
[20] Selecting decompositionMethod scotch
[23]  Foam::decompositionMethod::New 
[23] {
[23]     numberOfSubdomains 512;
[23]     method          scotch;
[23]     simpleCoeffs
[23]     {
[23]         n               ( 4 1 1 );
[23]         delta           0.001;
[23]     }
[23]     hierarchicalCoeffs
[23]     {
[23]         n               ( 3 2 1 );
[23]         delta           0.001;
[23]         order           xyz;
[23]     }
[23]     manualCoeffs
[23]     {
[23]         dataFile        "cellDecomposition";
[23]     }
[23] }
[23] 
[23] Selecting decompositionMethod scotch
[24]  Foam::decompositionMethod::New 
[24] {
[24]     numberOfSubdomains 512;
[24]     method          scotch;
[24]     simpleCoeffs
[24]     {
[24]         n               ( 4 1 1 );
[24]         delta           0.001;
[24]     }
[24]     hierarchicalCoeffs
[24]     {
[24]         n               ( 3 2 1 );
[24]         delta           0.001;
[24]         order           xyz;
[24]     }
[24]     manualCoeffs
[24]     {
[24]         dataFile        "cellDecomposition";
[24]     }
[24] }
[24] 
[24] Selecting decompositionMethod scotch
[16]         n               ( 3 2 1 );
[16]         delta           0.001;
[16]         order           xyz;
[16]     }
[16]     manualCoeffs
[16]     {
[16]         dataFile        "cellDecomposition";
[16]     }
[16] }
[16] 
[16] Selecting decompositionMethod scotch
[25]         n               ( 3 2 1 );
[25]         delta           0.001;
[25]         order           xyz;
[25]     }
[25]     manualCoeffs
[25]     {
[25]         dataFile        "cellDecomposition";
[25]     }
[25] }
[25] 
[25] Selecting decompositionMethod scotch
[27]  Foam::decompositionMethod::New 
[27] {
[27]     numberOfSubdomains 512;
[27]     method          scotch;
[27]     simpleCoeffs
[27]     {
[27]         n               ( 4 1 1 );
[27]         delta           0.001;
[27]     }
[27]     hierarchicalCoeffs
[27]     {
[27]         n               ( 3 2 1 );
[27]         delta           0.001;
[27]         order           xyz;
[27]     }
[27]     manualCoeffs
[27]     {
[27]         dataFile        "cellDecomposition";
[27]     }
[27] }
[27] 
[27] Selecting decompositionMethod scotch
[28]  Foam::decompositionMethod::New 
[28] {
[28]     numberOfSubdomains 512;
[28]     method          scotch;
[28]     simpleCoeffs
[28]     {
[28]         n               ( 4 1 1 );
[28]         delta           0.001;
[28]     }
[28]     hierarchicalCoeffs
[28]     {
[28]         n               ( 3 2 1 );
[28]         delta           0.001;
[28]         order           xyz;
[28]     }
[28]     manualCoeffs
[28]     {
[28]         dataFile        "cellDecomposition";
[28]     }
[28] }
[28] 
[28] Selecting decompositionMethod scotch
[29]  Foam::decompositionMethod::New 
[29] {
[29]     numberOfSubdomains 512;
[29]     method          scotch;
[29]     simpleCoeffs
[29]     {
[29]         n               ( 4 1 1 );
[29]         delta           0.001;
[29]     }
[29]     hierarchicalCoeffs
[29]     {
[29]         n               ( 3 2 1 );
[29]         delta           0.001;
[29]         order           xyz;
[29]     }
[29]     manualCoeffs
[29]     {
[29]         dataFile        "cellDecomposition";
[29]     }
[29] }
[29] 
[29] Selecting decompositionMethod scotch
[30]  Foam::decompositionMethod::New 
[30] {
[30]     numberOfSubdomains 512;
[30]     method          scotch;
[30]     simpleCoeffs
[30]     {
[30]         n               ( 4 1 1 );
[30]         delta           0.001;
[30]     }
[30]     hierarchicalCoeffs
[30]     {
[30]         n               ( 3 2 1 );
[30]         delta           0.001;
[30]         order           xyz;
[30]     }
[30]     manualCoeffs
[30]     {
[30]         dataFile        "cellDecomposition";
[30]     }
[30] }
[30] 
[30] Selecting decompositionMethod scotch
[0]     manualCoeffs
[0]     {
[0]         dataFile        "cellDecomposition";
[0]     }
[0] }
[0] 
[0] Selecting decompositionMethod scotch
[4]  Foam::decompositionMethod::New 
[4] {
[4]     numberOfSubdomains 512;
[4]     method          scotch;
[4]     simpleCoeffs
[4]     {
[4]         n               ( 4 1 1 );
[4]         delta           0.001;
[4]     }
[4]     hierarchicalCoeffs
[4]     {
[4]         n               ( 3 2 1 );
[4]         delta           0.001;
[4]         order           xyz;
[4]     }
[4]     manualCoeffs
[4]     {
[4]         dataFile        "cellDecomposition";
[4]     }
[4] }
[4] 
[7]         n               ( 4 1 1 );
[7]         delta           0.001;
[7]     }
[7]     hierarchicalCoeffs
[7]     {
[7]         n               ( 3 2 1 );
[7]         delta           0.001;
[7]         order           xyz;
[7]     }
[7]     manualCoeffs
[7]     {
[7]         dataFile        "cellDecomposition";
[7]     }
[7] }
[7] 
[7] Selecting decompositionMethod scotch
[9]  Foam::decompositionMethod::New 
[9] {
[9]     numberOfSubdomains 512;
[9]     method          scotch;
[9]     simpleCoeffs
[9]     {
[9]         n               ( 4 1 1 );
[9]         delta           0.001;
[9]     }
[9]     hierarchicalCoeffs
[9]     {
[9]         n               ( 3 2 1 );
[9]         delta           0.001;
[9]         order           xyz;
[9]     }
[9]     manualCoeffs
[9]     {
[9]         dataFile        "cellDecomposition";
[9]     }
[9] }
[9] 
[9] Selecting decompositionMethod scotch
[21]  Foam::decompositionMethod::New 
[21] {
[21]     numberOfSubdomains 512;
[21]     method          scotch;
[21]     simpleCoeffs
[21]     {
[21]         n               ( 4 1 1 );
[21]         delta           0.001;
[21]     }
[21]     hierarchicalCoeffs
[21]     {
[21]         n               ( 3 2 1 );
[22]  Foam::decompositionMethod::New 
[22] {
[22]     numberOfSubdomains 512;
[22]     method          scotch;
[22]     simpleCoeffs
[22]     {
[22]         n               ( 4 1 1 );
[22]         delta           0.001;
[22]     }
[22]     hierarchicalCoeffs
[22]     {
[22]         n               ( 3 2 1 );
[22]         delta           0.001;
[22]         order           xyz;
[22]     }
[22]     manualCoeffs
[22]     {
[22]         dataFile        "cellDecomposition";
[22]     }
[22] }
[22] 
[22] Selecting decompositionMethod scotch
[31]  Foam::decompositionMethod::New 
[31] {
[31]     numberOfSubdomains 512;
[31]     method          scotch;
[31]     simpleCoeffs
[31]     {
[31]         n               ( 4 1 1 );
[31]         delta           0.001;
[31]     }
[31]     hierarchicalCoeffs
[31]     {
[31]         n               ( 3 2 1 );
[31]         delta           0.001;
[31]         order           xyz;
Layer thickness specified as final layer and expansion ratio.
[31]     }
[31]     manualCoeffs
[31]     {
[31]         dataFile        "cellDecomposition";
[31]     }
[31] }
[31] 
[4] Selecting decompositionMethod scotch
[21]         delta           0.001;
[21]         order           xyz;
[21]     }
[21]     manualCoeffs
[21]     {
[21]         dataFile        "cellDecomposition";
[21]     }
[21] }
[21] 
[21] Selecting decompositionMethod scotch
[31] Selecting decompositionMethod scotch
[36]  Foam::decompositionMethod::New 
[36] {
[36]     numberOfSubdomains 512;
[36]     method          scotch;
[36]     simpleCoeffs
[36]     {
[36]         n               ( 4 1 1 );
[36]         delta           0.001;
[36]     }
[36]     hierarchicalCoeffs
[36]     {
[36]         n               ( 3 2 1 );
[36]         delta           0.001;
[36]         order           xyz;
[36]     }
[36]     manualCoeffs
[36]     {

Refinement phase
----------------

[481]  Foam::decompositionMethod::New 
[481] {
[481]     numberOfSubdomains 512;
[481]     method          scotch;
[481]     simpleCoeffs
[481]     {
[481]         n               ( 4 1 1 );
[481]         delta           0.001;
[481]     }
[481]     hierarchicalCoeffs
[481]     {
[481]         n               ( 3 2 1 );
[481]         delta           0.001;
[481]         order           xyz;
[481]     }
[481]     manualCoeffs
[481]     {
[481]         dataFile        "cellDecomposition";
[481]     }
[325]  Foam::decompositionMethod::New 
[325] {
[325]     numberOfSubdomains 512;
[325]     method          scotch;
[325]     simpleCoeffs
[325]     {
[325]         n               ( 4 1 1 );
[325]         delta           0.001;
[325]     }
[325]     hierarchicalCoeffs
[325]     {
[325]         n               ( 3 2 1 );
[325]         delta           0.001;
[325]         order           xyz;
[325]     }
[325]     manualCoeffs
[325]     {
[325]         dataFile        "cellDecomposition";
[325]     }
[325] }
[325] 
[325] Selecting decompositionMethod scotch
[134]  Foam::decompositionMethod::New 
[134] {
[134]     numberOfSubdomains 512;
[134]     method          scotch;
[134]     simpleCoeffs
[134]     {
[134]         n               ( 4 1 1 );
[134]         delta           0.001;
[134]     }
[134]     hierarchicalCoeffs
[134]     {
[134]         n               ( 3 2 1 );
[134]         delta           0.001;
[134]         order           xyz;
[134]     }
[134]     manualCoeffs
[134]     {
[134]         dataFile        "cellDecomposition";
[134]     }
[134] }
[43]  Foam::decompositionMethod::New 
[43] {
[43]     numberOfSubdomains 512;
[43]     method          scotch;
[43]     simpleCoeffs
[43]     {
[43]         n               ( 4 1 1 );
[43]         delta           0.001;
[43]     }
[43]     hierarchicalCoeffs
[43]     {
[43]         n               ( 3 2 1 );
[43]         delta           0.001;
[43]         order           xyz;
[43]     }
[43]     manualCoeffs
[43]     {
[43]         dataFile        "cellDecomposition";
[43]     }
[43] }
[43] 
[290]  Foam::decompositionMethod::New 
[290] {
[290]     numberOfSubdomains 512;
[290]     method          scotch;
[290]     simpleCoeffs
[290]     {
[290]         n               ( 4 1 1 );
[290]         delta           0.001;
[290]     }
[290]     hierarchicalCoeffs
[290]     {
[290]         n               ( 3 2 1 );
[290]         delta           0.001;
[290]         order           xyz;
[290]     }
[290]     manualCoeffs
[290]     {
[290]         dataFile        "cellDecomposition";
[290]     }
[290] }
[290] 
[290] Selecting decompositionMethod scotch
[482]  Foam::decompositionMethod::New 
[482] {
[482]     numberOfSubdomains 512;
[482]     method          scotch;
[482]     simpleCoeffs
[482]     {
[482]         n               ( 4 1 1 );
[482]         delta           0.001;
[482]     }
[482]     hierarchicalCoeffs
[482]     {
[482]         n               ( 3 2 1 );
[482]         delta           0.001;
[482]         order           xyz;
[482]     }
[482]     manualCoeffs
[482]     {
[482]         dataFile        "cellDecomposition";
[482]     }
[482] }
[482] 
[482] Selecting decompositionMethod scotch
[328]  Foam::decompositionMethod::New 
[328] {
[328]     numberOfSubdomains 512;
[328]     method          scotch;
[328]     simpleCoeffs
[328]     {
[328]         n               ( 4 1 1 );
[328]         delta           0.001;
[328]     }
[328]     hierarchicalCoeffs
[328]     {
[328]         n               ( 3 2 1 );
[328]         delta           0.001;
[328]         order           xyz;
[328]     }
[328]     manualCoeffs
[328]     {
[328]         dataFile        "cellDecomposition";
[328]     }
[328] }
[328] 
[328] Selecting decompositionMethod scotch
[384]  Foam::decompositionMethod::New 
[384] {
[384]     numberOfSubdomains 512;
[384]     method          scotch;
[384]     simpleCoeffs
[384]     {
[384]         n               ( 4 1 1 );
[384]         delta           0.001;
[384]     }
[384]     hierarchicalCoeffs
[384]     {
[384]         n               ( 3 2 1 );
[384]         delta           0.001;
[384]         order           xyz;
[384]     }
[384]     manualCoeffs
[384]     {
[384]         dataFile        "cellDecomposition";
[384]     }
[384] }
[384] 
[384] Selecting decompositionMethod scotch
[96]  Foam::decompositionMethod::New 
[96] {
[96]     numberOfSubdomains 512;
[96]     method          scotch;
[96]     simpleCoeffs
[96]     {
[96]         n               ( 4 1 1 );
[96]         delta           0.001;
[96]     }
[96]     hierarchicalCoeffs
[96]     {
[96]         n               ( 3 2 1 );
[96]         delta           0.001;
[96]         order           xyz;
[96]     }
[96]     manualCoeffs
[96]     {
[96]         dataFile        "cellDecomposition";
[96]     }
[96] }
[96] 
[96] Selecting decompositionMethod scotch
[47]  Foam::decompositionMethod::New 
[47] {
[47]     numberOfSubdomains 512;
[47]     method          scotch;
[47]     simpleCoeffs
[47]     {
[47]         n               ( 4 1 1 );
[47]         delta           0.001;
[47]     }
[47]     hierarchicalCoeffs
[47]     {
[47]         n               ( 3 2 1 );
[47]         delta           0.001;
[47]         order           xyz;
[47]     }
[47]     manualCoeffs
[47]     {
[47]         dataFile        "cellDecomposition";
[47]     }
[47] }
[47] 
[47] Selecting decompositionMethod scotch
[66]  Foam::decompositionMethod::New 
[66] {
[66]     numberOfSubdomains 512;
[66]     method          scotch;
[66]     simpleCoeffs
[66]     {
[66]         n               ( 4 1 1 );
[66]         delta           0.001;
[66]     }
[66]     hierarchicalCoeffs
[66]     {
[66]         n               ( 3 2 1 );
[66]         delta           0.001;
[66]         order           xyz;
[66]     }
[66]     manualCoeffs
[66]     {
[66]         dataFile        "cellDecomposition";
[66]     }
[66] }
[66] 
[66] Selecting decompositionMethod scotch
[291]  Foam::decompositionMethod::New 
[291] {
[291]     numberOfSubdomains 512;
[291]     method          scotch;
[291]     simpleCoeffs
[291]     {
[291]         n               ( 4 1 1 );
[291]         delta           0.001;
[291]     }
[291]     hierarchicalCoeffs
[291]     {
[291]         n               ( 3 2 1 );
[291]         delta           0.001;
[291]         order           xyz;
[291]     }
[291]     manualCoeffs
[291]     {
[291]         dataFile        "cellDecomposition";
[291]     }
[291] }
[291] 
[291] Selecting decompositionMethod scotch
[256]  Foam::decompositionMethod::New 
[256] {
[256]     numberOfSubdomains 512;
[256]     method          scotch;
[256]     simpleCoeffs
[256]     {
[256]         n               ( 4 1 1 );
[256]         delta           0.001;
[256]     }
[256]     hierarchicalCoeffs
[256]     {
[256]         n               ( 3 2 1 );
[256]         delta           0.001;
[256]         order           xyz;
[256]     }
[256]     manualCoeffs
[256]     {
[256]         dataFile        "cellDecomposition";
[256]     }
[256] }
[256] 
[256] Selecting decompositionMethod scotch
[357]  Foam::decompositionMethod::New 
[357] {
[357]     numberOfSubdomains 512;
[357]     method          scotch;
[357]     simpleCoeffs
[357]     {
[357]         n               ( 4 1 1 );
[357]         delta           0.001;
[357]     }
[357]     hierarchicalCoeffs
[357]     {
[357]         n               ( 3 2 1 );
[357]         delta           0.001;
[357]         order           xyz;
[357]     }
[357]     manualCoeffs
[357]     {
[357]         dataFile        "cellDecomposition";
[357]     }
[357] }
[357] 
[487]  Foam::decompositionMethod::New 
[487] {
[487]     numberOfSubdomains 512;
[487]     method          scotch;
[487]     simpleCoeffs
[487]     {
[487]         n               ( 4 1 1 );
[487]         delta           0.001;
[487]     }
[487]     hierarchicalCoeffs
[487]     {
[487]         n               ( 3 2 1 );
[487]         delta           0.001;
[487]         order           xyz;
[487]     }
[487]     manualCoeffs
[487]     {
[487]         dataFile        "cellDecomposition";
[487]     }
[487] }
[487] 
[487] Selecting decompositionMethod scotch
[330]  Foam::decompositionMethod::New 
[330] {
[330]     numberOfSubdomains 512;
[330]     method          scotch;
[330]     simpleCoeffs
[330]     {
[330]         n               ( 4 1 1 );
[330]         delta           0.001;
[330]     }
[330]     hierarchicalCoeffs
[330]     {
[330]         n               ( 3 2 1 );
[330]         delta           0.001;
[330]         order           xyz;
[330]     }
[330]     manualCoeffs
[330]     {
[330]         dataFile        "cellDecomposition";
[330]     }
[330] }
[330] 
[330] Selecting decompositionMethod scotch
[385]  Foam::decompositionMethod::New 
[385] {
[385]     numberOfSubdomains 512;
[385]     method          scotch;
[385]     simpleCoeffs
[385]     {
[385]         n               ( 4 1 1 );
[385]         delta           0.001;
[385]     }
[385]     hierarchicalCoeffs
[385]     {
[385]         n               ( 3 2 1 );
[385]         delta           0.001;
[385]         order           xyz;
[385]     }
[385]     manualCoeffs
[385]     {
[385]         dataFile        "cellDecomposition";
[385]     }
[385] }
[385] 
[385] Selecting decompositionMethod scotch
[451]  Foam::decompositionMethod::New 
[451] {
[451]     numberOfSubdomains 512;
[451]     method          scotch;
[451]     simpleCoeffs
[451]     {
[451]         n               ( 4 1 1 );
[451]         delta           0.001;
[451]     }
[451]     hierarchicalCoeffs
[451]     {
[451]         n               ( 3 2 1 );
[451]         delta           0.001;
[451]         order           xyz;
[451]     }
[451]     manualCoeffs
[451]     {
[451]         dataFile        "cellDecomposition";
[451]     }
[451] }
[451] 
[451] Selecting decompositionMethod scotch
[98]  Foam::decompositionMethod::New 
[98] {
[98]     numberOfSubdomains 512;
[98]     method          scotch;
[98]     simpleCoeffs
[98]     {
[98]         n               ( 4 1 1 );
[98]         delta           0.001;
[98]     }
[98]     hierarchicalCoeffs
[98]     {
[98]         n               ( 3 2 1 );
[98]         delta           0.001;
[98]         order           xyz;
[98]     }
[98]     manualCoeffs
[98]     {
[98]         dataFile        "cellDecomposition";
[98]     }
[98] }
[98] 
[98] Selecting decompositionMethod scotch
[135]  Foam::decompositionMethod::New 
[135] {
[135]     numberOfSubdomains 512;
[135]     method          scotch;
[135]     simpleCoeffs
[135]     {
[135]         n               ( 4 1 1 );
[135]         delta           0.001;
[135]     }
[135]     hierarchicalCoeffs
[135]     {
[135]         n               ( 3 2 1 );
[135]         delta           0.001;
[135]         order           xyz;
[135]     }
[135]     manualCoeffs
[135]     {
[135]         dataFile        "cellDecomposition";
[135]     }
[135] }
[135] 
[135] Selecting decompositionMethod scotch
[228]  Foam::decompositionMethod::New 
[228] {
[228]     numberOfSubdomains 512;
[228]     method          scotch;
[228]     simpleCoeffs
[228]     {
[228]         n               ( 4 1 1 );
[228]         delta           0.001;
[228]     }
[228]     hierarchicalCoeffs
[228]     {
[228]         n               ( 3 2 1 );
[228]         delta           0.001;
[228]         order           xyz;
[228]     }
[228]     manualCoeffs
[228]     {
[228]         dataFile        "cellDecomposition";
[228]     }
[228] }
[228] 
[228] Selecting decompositionMethod scotch
[49]  Foam::decompositionMethod::New 
[49] {
[49]     numberOfSubdomains 512;
[49]     method          scotch;
[49]     simpleCoeffs
[49]     {
[49]         n               ( 4 1 1 );
[49]         delta           0.001;
[49]     }
[49]     hierarchicalCoeffs
[49]     {
[49]         n               ( 3 2 1 );
[49]         delta           0.001;
[49]         order           xyz;
[49]     }
[49]     manualCoeffs
[49]     {
[49]         dataFile        "cellDecomposition";
[49]     }
[49] }
[49] 
[49] Selecting decompositionMethod scotch
[200]  Foam::decompositionMethod::New 
[200] {
[200]     numberOfSubdomains 512;
[200]     method          scotch;
[200]     simpleCoeffs
[200]     {
[200]         n               ( 4 1 1 );
[200]         delta           0.001;
[200]     }
[200]     hierarchicalCoeffs
[200]     {
[200]         n               ( 3 2 1 );
[200]         delta           0.001;
[200]         order           xyz;
[200]     }
[200]     manualCoeffs
[200]     {
[200]         dataFile        "cellDecomposition";
[200]     }
[200] }
[200] 
[200] Selecting decompositionMethod scotch
[294]  Foam::decompositionMethod::New 
[294] {
[294]     numberOfSubdomains 512;
[294]     method          scotch;
[294]     simpleCoeffs
[294]     {
[294]         n               ( 4 1 1 );
[294]         delta           0.001;
[294]     }
[294]     hierarchicalCoeffs
[294]     {
[294]         n               ( 3 2 1 );
[294]         delta           0.001;
[294]         order           xyz;
[294]     }
[294]     manualCoeffs
[294]     {
[294]         dataFile        "cellDecomposition";
[294]     }
[294] }
[294] 
[294] Selecting decompositionMethod scotch
[258]  Foam::decompositionMethod::New 
[258] {
[258]     numberOfSubdomains 512;
[258]     method          scotch;
[258]     simpleCoeffs
[258]     {
[258]         n               ( 4 1 1 );
[258]         delta           0.001;
[258]     }
[258]     hierarchicalCoeffs
[258]     {
[258]         n               ( 3 2 1 );
[258]         delta           0.001;
[258]         order           xyz;
[258]     }
[258]     manualCoeffs
[258]     {
[258]         dataFile        "cellDecomposition";
[258]     }
[258] }
[258] 
[258] Selecting decompositionMethod scotch
[358]  Foam::decompositionMethod::New 
[358] {
[358]     numberOfSubdomains 512;
[358]     method          scotch;
[358]     simpleCoeffs
[358]     {
[358]         n               ( 4 1 1 );
[358]         delta           0.001;
[358]     }
[358]     hierarchicalCoeffs
[358]     {
[358]         n               ( 3 2 1 );
[358]         delta           0.001;
[358]         order           xyz;
[358]     }
[358]     manualCoeffs
[358]     {
[358]         dataFile        "cellDecomposition";
[358]     }
[358] }
[358] 
[358] Selecting decompositionMethod scotch
[164]  Foam::decompositionMethod::New 
[164] {
[164]     numberOfSubdomains 512;
[164]     method          scotch;
[164]     simpleCoeffs
[164]     {
[164]         n               ( 4 1 1 );
[164]         delta           0.001;
[164]     }
[164]     hierarchicalCoeffs
[164]     {
[164]         n               ( 3 2 1 );
[164]         delta           0.001;
[164]         order           xyz;
[164]     }
[164]     manualCoeffs
[164]     {
[164]         dataFile        "cellDecomposition";
[164]     }
[164] }
[164] 
[164] Selecting decompositionMethod scotch
[488]  Foam::decompositionMethod::New 
[488] {
[488]     numberOfSubdomains 512;
[488]     method          scotch;
[488]     simpleCoeffs
[488]     {
[488]         n               ( 4 1 1 );
[488]         delta           0.001;
[488]     }
[488]     hierarchicalCoeffs
[488]     {
[488]         n               ( 3 2 1 );
[488]         delta           0.001;
[488]         order           xyz;
[488]     }
[488]     manualCoeffs
[488]     {
[488]         dataFile        "cellDecomposition";
[488]     }
[488] }
[488] 
[488] Selecting decompositionMethod scotch
[416]  Foam::decompositionMethod::New 
[416] {
[416]     numberOfSubdomains 512;
[416]     method          scotch;
[416]     simpleCoeffs
[416]     {
[416]         n               ( 4 1 1 );
[416]         delta           0.001;
[416]     }
[416]     hierarchicalCoeffs
[416]     {
[416]         n               ( 3 2 1 );
[416]         delta           0.001;
[416]         order           xyz;
[416]     }
[416]     manualCoeffs
[416]     {
[416]         dataFile        "cellDecomposition";
[416]     }
[416] }
[416] 
[416] Selecting decompositionMethod scotch
[331]  Foam::decompositionMethod::New 
[331] {
[331]     numberOfSubdomains 512;
[331]     method          scotch;
[331]     simpleCoeffs
[331]     {
[331]         n               ( 4 1 1 );
[331]         delta           0.001;
[331]     }
[331]     hierarchicalCoeffs
[331]     {
[331]         n               ( 3 2 1 );
[331]         delta           0.001;
[331]         order           xyz;
[331]     }
[331]     manualCoeffs
[331]     {
[331]         dataFile        "cellDecomposition";
[331]     }
[331] }
[331] 
[331] Selecting decompositionMethod scotch
[390]  Foam::decompositionMethod::New 
[390] {
[390]     numberOfSubdomains 512;
[390]     method          scotch;
[390]     simpleCoeffs
[390]     {
[390]         n               ( 4 1 1 );
[390]         delta           0.001;
[390]     }
[390]     hierarchicalCoeffs
[390]     {
[390]         n               ( 3 2 1 );
[390]         delta           0.001;
[390]         order           xyz;
[390]     }
[390]     manualCoeffs
[390]     {
[390]         dataFile        "cellDecomposition";
[390]     }
[390] }
[390] 
[390] Selecting decompositionMethod scotch
[453]  Foam::decompositionMethod::New 
[453] {
[453]     numberOfSubdomains 512;
[453]     method          scotch;
[453]     simpleCoeffs
[453]     {
[453]         n               ( 4 1 1 );
[453]         delta           0.001;
[453]     }
[453]     hierarchicalCoeffs
[453]     {
[453]         n               ( 3 2 1 );
[453]         delta           0.001;
[453]         order           xyz;
[453]     }
[453]     manualCoeffs
[453]     {
[453]         dataFile        "cellDecomposition";
[453]     }
[453] }
[453] 
[453] Selecting decompositionMethod scotch
[101]  Foam::decompositionMethod::New 
[101] {
[101]     numberOfSubdomains 512;
[101]     method          scotch;
[101]     simpleCoeffs
[101]     {
[101]         n               ( 4 1 1 );
[101]         delta           0.001;
[101]     }
[101]     hierarchicalCoeffs
[101]     {
[101]         n               ( 3 2 1 );
[101]         delta           0.001;
[101]         order           xyz;
[101]     }
[101]     manualCoeffs
[101]     {
[101]         dataFile        "cellDecomposition";
[101]     }
[101] }
[101] 
[101] Selecting decompositionMethod scotch
[140]  Foam::decompositionMethod::New 
[140] {
[140]     numberOfSubdomains 512;
[140]     method          scotch;
[140]     simpleCoeffs
[140]     {
[140]         n               ( 4 1 1 );
[140]         delta           0.001;
[140]     }
[140]     hierarchicalCoeffs
[140]     {
[140]         n               ( 3 2 1 );
[140]         delta           0.001;
[140]         order           xyz;
[140]     }
[140]     manualCoeffs
[140]     {
[140]         dataFile        "cellDecomposition";
[140]     }
[140] }
[140] 
[140] Selecting decompositionMethod scotch
[229]  Foam::decompositionMethod::New 
[229] {
[229]     numberOfSubdomains 512;
[229]     method          scotch;
[229]     simpleCoeffs
[229]     {
[229]         n               ( 4 1 1 );
[229]         delta           0.001;
[229]     }
[229]     hierarchicalCoeffs
[229]     {
[229]         n               ( 3 2 1 );
[229]         delta           0.001;
[229]         order           xyz;
[229]     }
[229]     manualCoeffs
[229]     {
[229]         dataFile        "cellDecomposition";
[229]     }
[229] }
[229] 
[229] Selecting decompositionMethod scotch
[50]  Foam::decompositionMethod::New 
[50] {
[50]     numberOfSubdomains 512;
[50]     method          scotch;
[50]     simpleCoeffs
[50]     {
[50]         n               ( 4 1 1 );
[50]         delta           0.001;
[50]     }
[50]     hierarchicalCoeffs
[50]     {
[50]         n               ( 3 2 1 );
[50]         delta           0.001;
[50]         order           xyz;
[50]     }
[50]     manualCoeffs
[50]     {
[50]         dataFile        "cellDecomposition";
[50]     }
[50] }
[50] 
[50] Selecting decompositionMethod scotch
[76]  Foam::decompositionMethod::New 
[76] {
[76]     numberOfSubdomains 512;
[76]     method          scotch;
[76]     simpleCoeffs
[76]     {
[76]         n               ( 4 1 1 );
[76]         delta           0.001;
[76]     }
[76]     hierarchicalCoeffs
[76]     {
[76]         n               ( 3 2 1 );
[76]         delta           0.001;
[76]         order           xyz;
[76]     }
[76]     manualCoeffs
[76]     {
[76]         dataFile        "cellDecomposition";
[76]     }
[76] }
[76] 
[76] Selecting decompositionMethod scotch
[204]  Foam::decompositionMethod::New 
[204] {
[204]     numberOfSubdomains 512;
[204]     method          scotch;
[204]     simpleCoeffs
[204]     {
[204]         n               ( 4 1 1 );
[204]         delta           0.001;
[204]     }
[204]     hierarchicalCoeffs
[204]     {
[204]         n               ( 3 2 1 );
[204]         delta           0.001;
[204]         order           xyz;
[204]     }
[204]     manualCoeffs
[204]     {
[204]         dataFile        "cellDecomposition";
[204]     }
[204] }
[204] 
[204] Selecting decompositionMethod scotch
[295]  Foam::decompositionMethod::New 
[295] {
[295]     numberOfSubdomains 512;
[295]     method          scotch;
[295]     simpleCoeffs
[295]     {
[295]         n               ( 4 1 1 );
[295]         delta           0.001;
[295]     }
[295]     hierarchicalCoeffs
[295]     {
[295]         n               ( 3 2 1 );
[295]         delta           0.001;
[295]         order           xyz;
[295]     }
[295]     manualCoeffs
[295]     {
[295]         dataFile        "cellDecomposition";
[295]     }
[295] }
[295] 
[295] Selecting decompositionMethod scotch
[260]  Foam::decompositionMethod::New 
[260] {
[260]     numberOfSubdomains 512;
[260]     method          scotch;
[260]     simpleCoeffs
[260]     {
[260]         n               ( 4 1 1 );
[260]         delta           0.001;
[260]     }
[260]     hierarchicalCoeffs
[260]     {
[260]         n               ( 3 2 1 );
[260]         delta           0.001;
[260]         order           xyz;
[260]     }
[260]     manualCoeffs
[260]     {
[260]         dataFile        "cellDecomposition";
[260]     }
[260] }
[260] 
[260] Selecting decompositionMethod scotch
[359]  Foam::decompositionMethod::New 
[359] {
[359]     numberOfSubdomains 512;
[359]     method          scotch;
[359]     simpleCoeffs
[359]     {
[359]         n               ( 4 1 1 );
[359]         delta           0.001;
[359]     }
[359]     hierarchicalCoeffs
[359]     {
[359]         n               ( 3 2 1 );
[359]         delta           0.001;
[359]         order           xyz;
[359]     }
[359]     manualCoeffs
[359]     {
[359]         dataFile        "cellDecomposition";
[359]     }
[359] }
[359] 
[359] Selecting decompositionMethod scotch
[165]  Foam::decompositionMethod::New 
[165] {
[165]     numberOfSubdomains 512;
[165]     method          scotch;
[165]     simpleCoeffs
[165]     {
[165]         n               ( 4 1 1 );
[165]         delta           0.001;
[165]     }
[165]     hierarchicalCoeffs
[165]     {
[165]         n               ( 3 2 1 );
[165]         delta           0.001;
[165]         order           xyz;
[165]     }
[165]     manualCoeffs
[165]     {
[165]         dataFile        "cellDecomposition";
[165]     }
[165] }
[165] 
[165] Selecting decompositionMethod scotch
[489]  Foam::decompositionMethod::New 
[489] {
[489]     numberOfSubdomains 512;
[489]     method          scotch;
[489]     simpleCoeffs
[489]     {
[489]         n               ( 4 1 1 );
[489]         delta           0.001;
[489]     }
[489]     hierarchicalCoeffs
[489]     {
[489]         n               ( 3 2 1 );
[489]         delta           0.001;
[489]         order           xyz;
[489]     }
[489]     manualCoeffs
[489]     {
[489]         dataFile        "cellDecomposition";
[489]     }
[489] }
[489] 
[489] Selecting decompositionMethod scotch
[418]  Foam::decompositionMethod::New 
[418] {
[418]     numberOfSubdomains 512;
[418]     method          scotch;
[418]     simpleCoeffs
[418]     {
[418]         n               ( 4 1 1 );
[418]         delta           0.001;
[418]     }
[418]     hierarchicalCoeffs
[418]     {
[418]         n               ( 3 2 1 );
[418]         delta           0.001;
[418]         order           xyz;
[418]     }
[418]     manualCoeffs
[418]     {
[418]         dataFile        "cellDecomposition";
[418]     }
[418] }
[418] 
[418] Selecting decompositionMethod scotch
[333]  Foam::decompositionMethod::New 
[333] {
[333]     numberOfSubdomains 512;
[333]     method          scotch;
[333]     simpleCoeffs
[333]     {
[333]         n               ( 4 1 1 );
[333]         delta           0.001;
[333]     }
[333]     hierarchicalCoeffs
[333]     {
[333]         n               ( 3 2 1 );
[333]         delta           0.001;
[333]         order           xyz;
[333]     }
[333]     manualCoeffs
[333]     {
[333]         dataFile        "cellDecomposition";
[333]     }
[333] }
[333] 
[333] Selecting decompositionMethod scotch
[391]  Foam::decompositionMethod::New 
[391] {
[391]     numberOfSubdomains 512;
[391]     method          scotch;
[391]     simpleCoeffs
[391]     {
[391]         n               ( 4 1 1 );
[391]         delta           0.001;
[391]     }
[391]     hierarchicalCoeffs
[391]     {
[391]         n               ( 3 2 1 );
[391]         delta           0.001;
[391]         order           xyz;
[391]     }
[391]     manualCoeffs
[391]     {
[391]         dataFile        "cellDecomposition";
[391]     }
[391] }
[391] 
[391] Selecting decompositionMethod scotch
[454]  Foam::decompositionMethod::New 
[454] {
[454]     numberOfSubdomains 512;
[454]     method          scotch;
[454]     simpleCoeffs
[454]     {
[454]         n               ( 4 1 1 );
[454]         delta           0.001;
[454]     }
[454]     hierarchicalCoeffs
[454]     {
[454]         n               ( 3 2 1 );
[454]         delta           0.001;
[454]         order           xyz;
[454]     }
[454]     manualCoeffs
[454]     {
[454]         dataFile        "cellDecomposition";
[454]     }
[454] }
[454] 
[454] Selecting decompositionMethod scotch
[104]  Foam::decompositionMethod::New 
[104] {
[104]     numberOfSubdomains 512;
[104]     method          scotch;
[104]     simpleCoeffs
[104]     {
[104]         n               ( 4 1 1 );
[104]         delta           0.001;
[104]     }
[104]     hierarchicalCoeffs
[104]     {
[104]         n               ( 3 2 1 );
[104]         delta           0.001;
[104]         order           xyz;
[104]     }
[104]     manualCoeffs
[104]     {
[104]         dataFile        "cellDecomposition";
[104]     }
[104] }
[104] 
[104] Selecting decompositionMethod scotch
[143]  Foam::decompositionMethod::New 
[143] {
[143]     numberOfSubdomains 512;
[143]     method          scotch;
[143]     simpleCoeffs
[143]     {
[143]         n               ( 4 1 1 );
[143]         delta           0.001;
[143]     }
[143]     hierarchicalCoeffs
[143]     {
[143]         n               ( 3 2 1 );
[143]         delta           0.001;
[143]         order           xyz;
[143]     }
[143]     manualCoeffs
[143]     {
[143]         dataFile        "cellDecomposition";
[143]     }
[143] }
[143] 
[143] Selecting decompositionMethod scotch
[234]  Foam::decompositionMethod::New 
[234] {
[234]     numberOfSubdomains 512;
[234]     method          scotch;
[234]     simpleCoeffs
[234]     {
[234]         n               ( 4 1 1 );
[234]         delta           0.001;
[234]     }
[234]     hierarchicalCoeffs
[234]     {
[234]         n               ( 3 2 1 );
[234]         delta           0.001;
[234]         order           xyz;
[234]     }
[234]     manualCoeffs
[234]     {
[234]         dataFile        "cellDecomposition";
[234]     }
[234] }
[234] 
[234] Selecting decompositionMethod scotch
[51]  Foam::decompositionMethod::New 
[51] {
[51]     numberOfSubdomains 512;
[51]     method          scotch;
[51]     simpleCoeffs
[51]     {
[51]         n               ( 4 1 1 );
[51]         delta           0.001;
[51]     }
[51]     hierarchicalCoeffs
[51]     {
[51]         n               ( 3 2 1 );
[51]         delta           0.001;
[51]         order           xyz;
[51]     }
[51]     manualCoeffs
[51]     {
[51]         dataFile        "cellDecomposition";
[51]     }
[51] }
[51] 
[51] Selecting decompositionMethod scotch
[77]  Foam::decompositionMethod::New 
[77] {
[77]     numberOfSubdomains 512;
[77]     method          scotch;
[77]     simpleCoeffs
[77]     {
[77]         n               ( 4 1 1 );
[77]         delta           0.001;
[77]     }
[77]     hierarchicalCoeffs
[77]     {
[77]         n               ( 3 2 1 );
[77]         delta           0.001;
[77]         order           xyz;
[77]     }
[77]     manualCoeffs
[77]     {
[77]         dataFile        "cellDecomposition";
[77]     }
[77] }
[77] 
[77] Selecting decompositionMethod scotch
[209]  Foam::decompositionMethod::New 
[209] {
[209]     numberOfSubdomains 512;
[209]     method          scotch;
[209]     simpleCoeffs
[209]     {
[209]         n               ( 4 1 1 );
[209]         delta           0.001;
[209]     }
[209]     hierarchicalCoeffs
[209]     {
[209]         n               ( 3 2 1 );
[209]         delta           0.001;
[209]         order           xyz;
[209]     }
[209]     manualCoeffs
[209]     {
[209]         dataFile        "cellDecomposition";
[209]     }
[209] }
[209] 
[209] Selecting decompositionMethod scotch
[296]  Foam::decompositionMethod::New 
[296] {
[296]     numberOfSubdomains 512;
[296]     method          scotch;
[296]     simpleCoeffs
[296]     {
[296]         n               ( 4 1 1 );
[296]         delta           0.001;
[296]     }
[296]     hierarchicalCoeffs
[296]     {
[296]         n               ( 3 2 1 );
[296]         delta           0.001;
[296]         order           xyz;
[296]     }
[296]     manualCoeffs
[296]     {
[296]         dataFile        "cellDecomposition";
[296]     }
[296] }
[296] 
[296] Selecting decompositionMethod scotch
[262]  Foam::decompositionMethod::New 
[262] {
[262]     numberOfSubdomains 512;
[262]     method          scotch;
[262]     simpleCoeffs
[262]     {
[262]         n               ( 4 1 1 );
[262]         delta           0.001;
[262]     }
[262]     hierarchicalCoeffs
[262]     {
[262]         n               ( 3 2 1 );
[262]         delta           0.001;
[262]         order           xyz;
[262]     }
[262]     manualCoeffs
[262]     {
[262]         dataFile        "cellDecomposition";
[262]     }
[262] }
[262] 
[262] Selecting decompositionMethod scotch
[360]  Foam::decompositionMethod::New 
[360] {
[360]     numberOfSubdomains 512;
[360]     method          scotch;
[360]     simpleCoeffs
[360]     {
[360]         n               ( 4 1 1 );
[360]         delta           0.001;
[360]     }
[360]     hierarchicalCoeffs
[360]     {
[360]         n               ( 3 2 1 );
[360]         delta           0.001;
[360]         order           xyz;
[360]     }
[360]     manualCoeffs
[360]     {
[360]         dataFile        "cellDecomposition";
[360]     }
[360] }
[360] 
[360] Selecting decompositionMethod scotch
[166]  Foam::decompositionMethod::New 
[166] {
[166]     numberOfSubdomains 512;
[166]     method          scotch;
[166]     simpleCoeffs
[166]     {
[166]         n               ( 4 1 1 );
[166]         delta           0.001;
[166]     }
[166]     hierarchicalCoeffs
[166]     {
[166]         n               ( 3 2 1 );
[166]         delta           0.001;
[166]         order           xyz;
[166]     }
[166]     manualCoeffs
[166]     {
[166]         dataFile        "cellDecomposition";
[166]     }
[166] }
[166] 
[166] Selecting decompositionMethod scotch
[490]  Foam::decompositionMethod::New 
[490] {
[490]     numberOfSubdomains 512;
[490]     method          scotch;
[490]     simpleCoeffs
[490]     {
[490]         n               ( 4 1 1 );
[490]         delta           0.001;
[490]     }
[490]     hierarchicalCoeffs
[490]     {
[490]         n               ( 3 2 1 );
[490]         delta           0.001;
[490]         order           xyz;
[490]     }
[490]     manualCoeffs
[490]     {
[490]         dataFile        "cellDecomposition";
[490]     }
[490] }
[490] 
[490] Selecting decompositionMethod scotch
[419]  Foam::decompositionMethod::New 
[419] {
[419]     numberOfSubdomains 512;
[419]     method          scotch;
[419]     simpleCoeffs
[419]     {
[419]         n               ( 4 1 1 );
[419]         delta           0.001;
[419]     }
[419]     hierarchicalCoeffs
[419]     {
[419]         n               ( 3 2 1 );
[419]         delta           0.001;
[419]         order           xyz;
[419]     }
[419]     manualCoeffs
[419]     {
[419]         dataFile        "cellDecomposition";
[419]     }
[419] }
[419] 
[419] Selecting decompositionMethod scotch
[334]  Foam::decompositionMethod::New 
[334] {
[334]     numberOfSubdomains 512;
[334]     method          scotch;
[334]     simpleCoeffs
[334]     {
[334]         n               ( 4 1 1 );
[334]         delta           0.001;
[334]     }
[334]     hierarchicalCoeffs
[334]     {
[334]         n               ( 3 2 1 );
[334]         delta           0.001;
[334]         order           xyz;
[334]     }
[334]     manualCoeffs
[334]     {
[334]         dataFile        "cellDecomposition";
[334]     }
[334] }
[334] 
[334] Selecting decompositionMethod scotch
[392]  Foam::decompositionMethod::New 
[392] {
[392]     numberOfSubdomains 512;
[392]     method          scotch;
[392]     simpleCoeffs
[392]     {
[392]         n               ( 4 1 1 );
[392]         delta           0.001;
[392]     }
[392]     hierarchicalCoeffs
[392]     {
[392]         n               ( 3 2 1 );
[392]         delta           0.001;
[392]         order           xyz;
[392]     }
[392]     manualCoeffs
[392]     {
[392]         dataFile        "cellDecomposition";
[392]     }
[392] }
[392] 
[392] Selecting decompositionMethod scotch
[456]  Foam::decompositionMethod::New 
[456] {
[456]     numberOfSubdomains 512;
[456]     method          scotch;
[456]     simpleCoeffs
[456]     {
[456]         n               ( 4 1 1 );
[456]         delta           0.001;
[456]     }
[456]     hierarchicalCoeffs
[456]     {
[456]         n               ( 3 2 1 );
[456]         delta           0.001;
[456]         order           xyz;
[456]     }
[456]     manualCoeffs
[456]     {
[456]         dataFile        "cellDecomposition";
[456]     }
[456] }
[456] 
[456] Selecting decompositionMethod scotch
[105]  Foam::decompositionMethod::New 
[105] {
[105]     numberOfSubdomains 512;
[105]     method          scotch;
[105]     simpleCoeffs
[105]     {
[105]         n               ( 4 1 1 );
[105]         delta           0.001;
[105]     }
[105]     hierarchicalCoeffs
[105]     {
[105]         n               ( 3 2 1 );
[105]         delta           0.001;
[105]         order           xyz;
[105]     }
[105]     manualCoeffs
[105]     {
[105]         dataFile        "cellDecomposition";
[105]     }
[105] }
[105] 
[105] Selecting decompositionMethod scotch
[145]  Foam::decompositionMethod::New 
[145] {
[145]     numberOfSubdomains 512;
[145]     method          scotch;
[145]     simpleCoeffs
[145]     {
[145]         n               ( 4 1 1 );
[145]         delta           0.001;
[145]     }
[145]     hierarchicalCoeffs
[145]     {
[145]         n               ( 3 2 1 );
[145]         delta           0.001;
[145]         order           xyz;
[145]     }
[145]     manualCoeffs
[145]     {
[145]         dataFile        "cellDecomposition";
[145]     }
[145] }
[145] 
[145] Selecting decompositionMethod scotch
[235]  Foam::decompositionMethod::New 
[235] {
[235]     numberOfSubdomains 512;
[235]     method          scotch;
[235]     simpleCoeffs
[235]     {
[235]         n               ( 4 1 1 );
[235]         delta           0.001;
[235]     }
[235]     hierarchicalCoeffs
[235]     {
[235]         n               ( 3 2 1 );
[235]         delta           0.001;
[235]         order           xyz;
[235]     }
[235]     manualCoeffs
[235]     {
[235]         dataFile        "cellDecomposition";
[235]     }
[235] }
[235] 
[235] Selecting decompositionMethod scotch
[52]  Foam::decompositionMethod::New 
[52] {
[52]     numberOfSubdomains 512;
[52]     method          scotch;
[52]     simpleCoeffs
[52]     {
[52]         n               ( 4 1 1 );
[52]         delta           0.001;
[52]     }
[52]     hierarchicalCoeffs
[52]     {
[52]         n               ( 3 2 1 );
[52]         delta           0.001;
[52]         order           xyz;
[52]     }
[52]     manualCoeffs
[52]     {
[52]         dataFile        "cellDecomposition";
[52]     }
[52] }
[52] 
[52] Selecting decompositionMethod scotch
[78]  Foam::decompositionMethod::New 
[78] {
[78]     numberOfSubdomains 512;
[78]     method          scotch;
[78]     simpleCoeffs
[78]     {
[78]         n               ( 4 1 1 );
[78]         delta           0.001;
[78]     }
[78]     hierarchicalCoeffs
[78]     {
[78]         n               ( 3 2 1 );
[78]         delta           0.001;
[78]         order           xyz;
[78]     }
[78]     manualCoeffs
[78]     {
[78]         dataFile        "cellDecomposition";
[78]     }
[78] }
[78] 
[78] Selecting decompositionMethod scotch
[210]  Foam::decompositionMethod::New 
[210] {
[210]     numberOfSubdomains 512;
[210]     method          scotch;
[210]     simpleCoeffs
[210]     {
[210]         n               ( 4 1 1 );
[210]         delta           0.001;
[210]     }
[210]     hierarchicalCoeffs
[210]     {
[210]         n               ( 3 2 1 );
[210]         delta           0.001;
[210]         order           xyz;
[210]     }
[210]     manualCoeffs
[210]     {
[210]         dataFile        "cellDecomposition";
[210]     }
[210] }
[210] 
[210] Selecting decompositionMethod scotch
[299]  Foam::decompositionMethod::New 
[299] {
[299]     numberOfSubdomains 512;
[299]     method          scotch;
[299]     simpleCoeffs
[299]     {
[299]         n               ( 4 1 1 );
[299]         delta           0.001;
[299]     }
[299]     hierarchicalCoeffs
[299]     {
[299]         n               ( 3 2 1 );
[299]         delta           0.001;
[299]         order           xyz;
[299]     }
[299]     manualCoeffs
[299]     {
[299]         dataFile        "cellDecomposition";
[299]     }
[299] }
[299] 
[299] Selecting decompositionMethod scotch
[263]  Foam::decompositionMethod::New 
[263] {
[263]     numberOfSubdomains 512;
[263]     method          scotch;
[263]     simpleCoeffs
[263]     {
[263]         n               ( 4 1 1 );
[263]         delta           0.001;
[263]     }
[263]     hierarchicalCoeffs
[263]     {
[263]         n               ( 3 2 1 );
[263]         delta           0.001;
[263]         order           xyz;
[263]     }
[263]     manualCoeffs
[263]     {
[263]         dataFile        "cellDecomposition";
[263]     }
[263] }
[263] 
[263] Selecting decompositionMethod scotch
[361]  Foam::decompositionMethod::New 
[361] {
[361]     numberOfSubdomains 512;
[361]     method          scotch;
[361]     simpleCoeffs
[361]     {
[361]         n               ( 4 1 1 );
[361]         delta           0.001;
[361]     }
[361]     hierarchicalCoeffs
[361]     {
[361]         n               ( 3 2 1 );
[361]         delta           0.001;
[361]         order           xyz;
[361]     }
[361]     manualCoeffs
[361]     {
[361]         dataFile        "cellDecomposition";
[361]     }
[361] }
[361] 
[361] Selecting decompositionMethod scotch
[167]  Foam::decompositionMethod::New 
[167] {
[167]     numberOfSubdomains 512;
[167]     method          scotch;
[167]     simpleCoeffs
[167]     {
[167]         n               ( 4 1 1 );
[167]         delta           0.001;
[167]     }
[167]     hierarchicalCoeffs
[167]     {
[167]         n               ( 3 2 1 );
[167]         delta           0.001;
[167]         order           xyz;
[167]     }
[167]     manualCoeffs
[167]     {
[167]         dataFile        "cellDecomposition";
[167]     }
[167] }
[167] 
[167] Selecting decompositionMethod scotch
[494]  Foam::decompositionMethod::New 
[494] {
[494]     numberOfSubdomains 512;
[494]     method          scotch;
[494]     simpleCoeffs
[494]     {
[494]         n               ( 4 1 1 );
[494]         delta           0.001;
[494]     }
[494]     hierarchicalCoeffs
[494]     {
[494]         n               ( 3 2 1 );
[494]         delta           0.001;
[494]         order           xyz;
[494]     }
[494]     manualCoeffs
[494]     {
[494]         dataFile        "cellDecomposition";
[494]     }
[494] }
[494] 
[494] Selecting decompositionMethod scotch
[420]  Foam::decompositionMethod::New 
[420] {
[420]     numberOfSubdomains 512;
[420]     method          scotch;
[420]     simpleCoeffs
[420]     {
[420]         n               ( 4 1 1 );
[420]         delta           0.001;
[420]     }
[420]     hierarchicalCoeffs
[420]     {
[420]         n               ( 3 2 1 );
[420]         delta           0.001;
[420]         order           xyz;
[420]     }
[420]     manualCoeffs
[420]     {
[420]         dataFile        "cellDecomposition";
[420]     }
[420] }
[420] 
[420] Selecting decompositionMethod scotch
[335]  Foam::decompositionMethod::New 
[335] {
[335]     numberOfSubdomains 512;
[335]     method          scotch;
[335]     simpleCoeffs
[335]     {
[335]         n               ( 4 1 1 );
[335]         delta           0.001;
[335]     }
[335]     hierarchicalCoeffs
[335]     {
[335]         n               ( 3 2 1 );
[335]         delta           0.001;
[335]         order           xyz;
[335]     }
[335]     manualCoeffs
[335]     {
[335]         dataFile        "cellDecomposition";
[335]     }
[335] }
[335] 
[335] Selecting decompositionMethod scotch
[393]  Foam::decompositionMethod::New 
[393] {
[393]     numberOfSubdomains 512;
[393]     method          scotch;
[393]     simpleCoeffs
[393]     {
[393]         n               ( 4 1 1 );
[393]         delta           0.001;
[393]     }
[393]     hierarchicalCoeffs
[393]     {
[393]         n               ( 3 2 1 );
[393]         delta           0.001;
[393]         order           xyz;
[393]     }
[393]     manualCoeffs
[393]     {
[393]         dataFile        "cellDecomposition";
[393]     }
[393] }
[393] 
[393] Selecting decompositionMethod scotch
[458]  Foam::decompositionMethod::New 
[458] {
[458]     numberOfSubdomains 512;
[458]     method          scotch;
[458]     simpleCoeffs
[458]     {
[458]         n               ( 4 1 1 );
[458]         delta           0.001;
[458]     }
[458]     hierarchicalCoeffs
[458]     {
[...]
    faces with concavity > 80  degrees                     : 0
    faces with skewness > 4   (internal) or 20  (boundary) : 0
    faces with interpolation weights (0..1)  < 0.02        : 0
    faces with volume ratio of neighbour cells < 0.01      : 0
    faces with face twist < 0.02                           : 0
    faces on cells with determinant < 0.001                : 0
displacementMedialAxis : Successfully moved mesh
displacementMedialAxis : Finished moving mesh ...
truncateDisplacement : Unextruded 0 faces due to non-consecutive vertices being extruded.
truncateDisplacement : Unextruded 0 faces due to stringed edges with inconsistent extrusion.

Setting up information for layer truncation ...

Checking mesh with layer ...
Checking faces in error :
    non-orthogonality > 65  degrees                        : 4
    faces with face pyramid volume < 1e-13                 : 0
    faces with face-decomposition tet quality < 1e-15      : 4
    faces with concavity > 80  degrees                     : 0
    faces with skewness > 4   (internal) or 20  (boundary) : 0
    faces with interpolation weights (0..1)  < 0.02        : 0
    faces with volume ratio of neighbour cells < 0.01      : 0
    faces with face twist < 0.02                           : 0
    faces on cells with determinant < 0.001                : 0
Detected 8 illegal faces (concave, zero area or negative cell pyramid volume)
Extruding 142179 out of 183083 faces (77.6582%). Removed extrusion at 8 faces.
Added 142188 out of 183083 cells (77.6631%).


Layer addition iteration 19
--------------------------

Determining displacement for added points according to pointNormal ...
Detected 0 points with point normal pointing through faces.
Reset displacement at 0 points to average of surrounding points.

displacementMedialAxis : Smoothing using Medial Axis ...
displacementMedialAxis : Reducing layer thickness at 550 nodes where thickness to medial axis distance is large 
displacementMedialAxis : Removing isolated regions ...
displacementMedialAxis : Number of isolated points extrusion stopped : 13
displacementMedialAxis : Smoothing field ...
    Iteration 0   residual 4.64574e-05
displacementMedialAxis : Moving mesh ...
displacementMedialAxis : Iteration 0
Moving mesh using displacement scaling : min:1  max:1
Checking faces in error :
    non-orthogonality > 65  degrees                        : 0
    faces with face pyramid volume < 1e-13                 : 0
    faces with face-decomposition tet quality < 1e-15      : 22
    faces with concavity > 80  degrees                     : 0
    faces with skewness > 4   (internal) or 20  (boundary) : 0
    faces with interpolation weights (0..1)  < 0.02        : 0
    faces with volume ratio of neighbour cells < 0.01      : 0
    faces with face twist < 0.02                           : 1
    faces on cells with determinant < 0.001                : 0
displacementMedialAxis : Iteration 1
Moving mesh using displacement scaling : min:0.75  max:1
Checking faces in error :
    non-orthogonality > 65  degrees                        : 0
    faces with face pyramid volume < 1e-13                 : 0
    faces with face-decomposition tet quality < 1e-15      : 8
    faces with concavity > 80  degrees                     : 0
    faces with skewness > 4   (internal) or 20  (boundary) : 0
    faces with interpolation weights (0..1)  < 0.02        : 0
    faces with volume ratio of neighbour cells < 0.01      : 0
    faces with face twist < 0.02                           : 0
    faces on cells with determinant < 0.001                : 0
displacementMedialAxis : Iteration 2
Moving mesh using displacement scaling : min:0.5625  max:1
Checking faces in error :
    non-orthogonality > 65  degrees                        : 0
    faces with face pyramid volume < 1e-13                 : 0
    faces with face-decomposition tet quality < 1e-15      : 3
    faces with concavity > 80  degrees                     : 0
    faces with skewness > 4   (internal) or 20  (boundary) : 0
    faces with interpolation weights (0..1)  < 0.02        : 0
    faces with volume ratio of neighbour cells < 0.01      : 0
    faces with face twist < 0.02                           : 0
    faces on cells with determinant < 0.001                : 0
displacementMedialAxis : Iteration 3
displacementMedialAxis : Displacement scaling for error reduction set to 0.
Moving mesh using displacement scaling : min:0.421875  max:1
Checking faces in error :
    non-orthogonality > 65  degrees                        : 0
    faces with face pyramid volume < 1e-13                 : 0
    faces with face-decomposition tet quality < 1e-15      : 2
    faces with concavity > 80  degrees                     : 0
    faces with skewness > 4   (internal) or 20  (boundary) : 0
    faces with interpolation weights (0..1)  < 0.02        : 0
    faces with volume ratio of neighbour cells < 0.01      : 0
    faces with face twist < 0.02                           : 0
    faces on cells with determinant < 0.001                : 0
displacementMedialAxis : Iteration 4
Moving mesh using displacement scaling : min:0  max:1
Checking faces in error :
    non-orthogonality > 65  degrees                        : 0
    faces with face pyramid volume < 1e-13                 : 0
    faces with face-decomposition tet quality < 1e-15      : 0
    faces with concavity > 80  degrees                     : 0
    faces with skewness > 4   (internal) or 20  (boundary) : 0
    faces with interpolation weights (0..1)  < 0.02        : 0
    faces with volume ratio of neighbour cells < 0.01      : 0
    faces with face twist < 0.02                           : 0
    faces on cells with determinant < 0.001                : 0
displacementMedialAxis : Successfully moved mesh
displacementMedialAxis : Finished moving mesh ...
truncateDisplacement : Unextruded 1 faces due to non-consecutive vertices being extruded.
truncateDisplacement : Unextruded 0 faces due to stringed edges with inconsistent extrusion.
truncateDisplacement : Unextruded 0 faces due to non-consecutive vertices being extruded.
truncateDisplacement : Unextruded 0 faces due to stringed edges with inconsistent extrusion.

Setting up information for layer truncation ...

Checking mesh with layer ...
Checking faces in error :
    non-orthogonality > 65  degrees                        : 0
    faces with face pyramid volume < 1e-13                 : 0
    faces with face-decomposition tet quality < 1e-15      : 1
    faces with concavity > 80  degrees                     : 0
    faces with skewness > 4   (internal) or 20  (boundary) : 0
    faces with interpolation weights (0..1)  < 0.02        : 0
    faces with volume ratio of neighbour cells < 0.01      : 0
    faces with face twist < 0.02                           : 0
    faces on cells with determinant < 0.001                : 0
Detected 1 illegal faces (concave, zero area or negative cell pyramid volume)
Extruding 142161 out of 183083 faces (77.6484%). Removed extrusion at 1 faces.
Added 142162 out of 183083 cells (77.6489%).


Layer addition iteration 20
--------------------------

Determining displacement for added points according to pointNormal ...
Detected 0 points with point normal pointing through faces.
Reset displacement at 0 points to average of surrounding points.

displacementMedialAxis : Smoothing using Medial Axis ...
displacementMedialAxis : Reducing layer thickness at 550 nodes where thickness to medial axis distance is large 
displacementMedialAxis : Removing isolated regions ...
displacementMedialAxis : Number of isolated points extrusion stopped : 3
displacementMedialAxis : Smoothing field ...
    Iteration 0   residual 4.64536e-05
displacementMedialAxis : Moving mesh ...
displacementMedialAxis : Iteration 0
Moving mesh using displacement scaling : min:1  max:1
Checking faces in error :
    non-orthogonality > 65  degrees                        : 0
    faces with face pyramid volume < 1e-13                 : 0
    faces with face-decomposition tet quality < 1e-15      : 22
    faces with concavity > 80  degrees                     : 0
    faces with skewness > 4   (internal) or 20  (boundary) : 0
    faces with interpolation weights (0..1)  < 0.02        : 0
    faces with volume ratio of neighbour cells < 0.01      : 0
    faces with face twist < 0.02                           : 1
    faces on cells with determinant < 0.001                : 0
displacementMedialAxis : Iteration 1
Moving mesh using displacement scaling : min:0.75  max:1
Checking faces in error :
    non-orthogonality > 65  degrees                        : 0
    faces with face pyramid volume < 1e-13                 : 0
    faces with face-decomposition tet quality < 1e-15      : 8
    faces with concavity > 80  degrees                     : 0
    faces with skewness > 4   (internal) or 20  (boundary) : 0
    faces with interpolation weights (0..1)  < 0.02        : 0
    faces with volume ratio of neighbour cells < 0.01      : 0
    faces with face twist < 0.02                           : 0
    faces on cells with determinant < 0.001                : 0
displacementMedialAxis : Iteration 2
Moving mesh using displacement scaling : min:0.5625  max:1
Checking faces in error :
    non-orthogonality > 65  degrees                        : 0
    faces with face pyramid volume < 1e-13                 : 0
    faces with face-decomposition tet quality < 1e-15      : 3
    faces with concavity > 80  degrees                     : 0
    faces with skewness > 4   (internal) or 20  (boundary) : 0
    faces with interpolation weights (0..1)  < 0.02        : 0
    faces with volume ratio of neighbour cells < 0.01      : 0
    faces with face twist < 0.02                           : 0
    faces on cells with determinant < 0.001                : 0
displacementMedialAxis : Iteration 3
displacementMedialAxis : Displacement scaling for error reduction set to 0.
Moving mesh using displacement scaling : min:0.421875  max:1
Checking faces in error :
    non-orthogonality > 65  degrees                        : 0
    faces with face pyramid volume < 1e-13                 : 0
    faces with face-decomposition tet quality < 1e-15      : 2
    faces with concavity > 80  degrees                     : 0
    faces with skewness > 4   (internal) or 20  (boundary) : 0
    faces with interpolation weights (0..1)  < 0.02        : 0
    faces with volume ratio of neighbour cells < 0.01      : 0
    faces with face twist < 0.02                           : 0
    faces on cells with determinant < 0.001                : 0
displacementMedialAxis : Iteration 4
Moving mesh using displacement scaling : min:0  max:1
Checking faces in error :
    non-orthogonality > 65  degrees                        : 0
    faces with face pyramid volume < 1e-13                 : 0
    faces with face-decomposition tet quality < 1e-15      : 0
    faces with concavity > 80  degrees                     : 0
    faces with skewness > 4   (internal) or 20  (boundary) : 0
    faces with interpolation weights (0..1)  < 0.02        : 0
    faces with volume ratio of neighbour cells < 0.01      : 0
    faces with face twist < 0.02                           : 0
    faces on cells with determinant < 0.001                : 0
displacementMedialAxis : Successfully moved mesh
displacementMedialAxis : Finished moving mesh ...
truncateDisplacement : Unextruded 0 faces due to non-consecutive vertices being extruded.
truncateDisplacement : Unextruded 0 faces due to stringed edges with inconsistent extrusion.

Setting up information for layer truncation ...

Checking mesh with layer ...
Checking faces in error :
    non-orthogonality > 65  degrees                        : 0
    faces with face pyramid volume < 1e-13                 : 0
    faces with face-decomposition tet quality < 1e-15      : 0
    faces with concavity > 80  degrees                     : 0
    faces with skewness > 4   (internal) or 20  (boundary) : 0
    faces with interpolation weights (0..1)  < 0.02        : 0
    faces with volume ratio of neighbour cells < 0.01      : 0
    faces with face twist < 0.02                           : 0
    faces on cells with determinant < 0.001                : 0
Detected 0 illegal faces (concave, zero area or negative cell pyramid volume)
Extruding 142155 out of 183083 faces (77.6451%). Removed extrusion at 0 faces.
Added 142155 out of 183083 cells (77.6451%).
Edge intersection testing:
    Number of edges             : 5914763
    Number of edges to retest   : 0
    Number of intersected edges : 291637

Doing final balancing
---------------------

Writing 142155 added cells to cellSet addedCells
Writing 0 faces inside added layer to faceSet layerFaces

Writing fields with layer information:
    nSurfaceLayers    : actual number of layers
    thickness         : overall layer thickness
    thicknessFraction : overall layer thickness (fraction of desired thickness)


patch                                            faces    layers   overall thickness
                                                                   [m]       [%]
-----                                            -----    ------   ---       ---
lowerWall                                        15843    0.994    0.0145    96.3    
motorBike_frt-fairing:001%1                      21805    0.736    0.0013    55.3    
motorBike_windshield:002%2                       178      0.961    0.00217   92.8    
motorBike_rr-wh-rim:005%5                        580      0.852    0.00104   44.3    
motorBike_rr-wh-rim:010%10                       1380     0.178    0.000288  12.3    
motorBike_fr-wh-rim:011%11                       1776     0.546    0.000587  25.1    
motorBike_fr-wh-brake-disk:012%12                256      0.996    0.00103   43.8    
motorBike_frame:016-shadow%13                    410      0.461    0.000375  16.2    
motorBike_rear-susp:014%14                       3665     0.784    0.00111   47.3    
motorBike_rear-susp:014-shadow%15                2115     0.77     0.00112   48.1    
motorBike_frame:016%16                           274      0.387    0.000322  13.7    
motorBike_rr-wh-rim:005-shadow%17                301      0.814    0.00103   44.3    
motorBike_rr-wh-chain-hub:022%22                 459      0.527    0.000497  21.2    
motorBike_rearseat%24                            1372     0.882    0.00175   68.6    
motorBike_frt-fairing%25                         2215     0.879    0.00151   63.6    
motorBike_windshield%26                          1492     0.473    0.000821  35      
motorBike_headlights%27                          592      0.983    0.00218   92.8    
motorBike_driversseat%28                         1602     0.794    0.00124   52.7    
motorBike_rear-body%29                           7409     0.887    0.00162   66.9    
motorBike_fuel-tank%30                           3245     0.918    0.0019    78.1    
motorBike_exhaust%31                             8435     0.711    0.00133   52.9    
motorBike_rr-wh-rim%32                           4363     0.88     0.00147   58.6    
motorBike_fr-mud-guard%33                        3145     0.539    0.000743  31.8    
motorBike_fr-wh-rim%34                           2206     0.913    0.00156   66.7    
motorBike_fr-wh-brake-disk%35                    1745     0.764    0.000737  31.5    
motorBike_fr-brake-caliper%36                    572      0.285    0.000218  9.4     
motorBike_fr-wh-tyre%37                          5035     0.736    0.00135   57.7    
motorBike_hbars%38                               2026     0.221    0.000215  9.22    
motorBike_fr-forks%39                            4349     0.727    0.0013    55.8    
motorBike_chain%40                               1804     0.097    6.89e-05  2.94    
motorBike_rr-wh-tyre%41                          4592     0.798    0.00173   59.3    
motorBike_square-dial%42                         20       1        0.00192   81.9    
motorBike_round-dial%43                          45       0.978    0.00101   43.3    
motorBike_dial-holder%44                         344      0.73     0.000682  29.2    
motorBike_rear-susp%45                           7104     0.781    0.00095   40.5    
motorBike_rear-brake-lights%46                   200      0.44     0.000368  16      
motorBike_rear-light-bracket%47                  634      0.833    0.00117   49.8    
motorBike_frame%48                               7649     0.797    0.00134   57      
motorBike_rear-mud-guard%49                      2532     0.645    0.000984  42      
motorBike_rear-susp-spring-damp%50               453      0.589    0.000593  25.3    
motorBike_fairing-inner-plate%51                 1557     0.801    0.00126   50.7    
motorBike_clutch-housing%52                      3818     0.972    0.00178   75.6    
motorBike_radiator%53                            433      0.159    8.19e-05  3.49    
motorBike_water-pipe%54                          323      0        0         0       
motorBike_water-pump%55                          266      0.38     0.000325  14.1    
motorBike_engine%56                              8684     0.9      0.00154   64.3    
motorBike_rear-shock-link%57                     101      0        0         0       
motorBike_rear-brake-fluid-pot-bracket%58        168      0.631    0.00058   24.8    
motorBike_rear-brake-fluid-pot%59                204      0.574    0.000358  15.8    
motorBike_footpeg%60                             350      0.329    0.000163  6.94    
motorBike_rr-wh-chain-hub%61                     471      0.718    0.000638  27.2    
motorBike_rear-brake-caliper%62                  572      0.379    0.000301  12.9    
motorBike_rider-helmet%65                        1798     0.952    0.00232   78.9    
motorBike_rider-visor%66                         543      1        0.00231   96.7    
motorBike_rider-boots%67                         3747     0.96     0.00198   84.2    
motorBike_rider-gloves%68                        1212     0.417    0.000726  31      
motorBike_rider-body%69                          14315    0.934    0.00219   81.1    
motorBike_frame:0%70                             140      0.671    0.00105   44.7    
motorBike_frt-fairing:001-shadow%74              13632    0.706    0.00126   53.9    
motorBike_windshield-shadow%75                   1011     0.442    0.000786  33.5    
motorBike_fr-mud-guard-shadow%81                 2015     0.543    0.000788  33.7    
motorBike_fr-wh-brake-disk-shadow%83             919      0.746    0.000762  32.6    
motorBike_rear-mud-guard-shadow%84               1647     0.625    0.000999  42.6    
motorBike_rear-susp-spring-damp-shadow%85        263      0.62     0.000616  26.3    
motorBike_radiator-shadow%86                     246      0.175    9.11e-05  3.89    
motorBike_rear-shock-link-shadow%87              66       0        0         0       
motorBike_rear-brake-fluid-pot-bracket-shadow%88 92       0.598    0.00062   26.5    
motorBike_rr-wh-chain-hub-shadow%89              268      0.716    0.000648  27.7    

Layer mesh : cells:1905303  faces:5914763  points:2126778
Cells per refinement level:
    0	9547
    1	4920
    2	16076
    3	48272
    4	991397
    5	127709
    6	707382
Writing mesh to time constant
Wrote mesh in = 48.71 s.
Layers added in = 48.71 s.
Checking final mesh ...
Checking faces in error :
    non-orthogonality > 65  degrees                        : 0
    faces with face pyramid volume < 1e-13                 : 0
    faces with face-decomposition tet quality < 1e-15      : 0
    faces with concavity > 80  degrees                     : 0
    faces with skewness > 4   (internal) or 20  (boundary) : 0
    faces with interpolation weights (0..1)  < 0.02        : 0
    faces with volume ratio of neighbour cells < 0.01      : 0
    faces with face twist < 0.02                           : 0
    faces on cells with determinant < 0.001                : 0
Finished meshing without any errors
Finished meshing in = 223.61 s.
End

Finalising parallel run
