Cleaning /alaska/steveb/hpc-tests/stage/alaska/roce-gcc9-openmpi4-ucx/openfoam/Openfoam_Mbike_16 case
Running surfaceFeatureExtract on /alaska/steveb/hpc-tests/stage/alaska/roce-gcc9-openmpi4-ucx/openfoam/Openfoam_Mbike_16
Running blockMesh on /alaska/steveb/hpc-tests/stage/alaska/roce-gcc9-openmpi4-ucx/openfoam/Openfoam_Mbike_16
Running decomposePar on /alaska/steveb/hpc-tests/stage/alaska/roce-gcc9-openmpi4-ucx/openfoam/Openfoam_Mbike_16
Running snappyHexMesh in parallel on /alaska/steveb/hpc-tests/stage/alaska/roce-gcc9-openmpi4-ucx/openfoam/Openfoam_Mbike_16 using 512 processes
/*---------------------------------------------------------------------------*\
  =========                 |
  \\      /  F ield         | OpenFOAM: The Open Source CFD Toolbox
   \\    /   O peration     | Website:  https://openfoam.org
    \\  /    A nd           | Version:  7
     \\/     M anipulation  |
\*---------------------------------------------------------------------------*/
Build  : 7
Exec   : /alaska/steveb/spack/opt/spack/linux-centos7-broadwell/gcc-9.3.0/openfoam-org-7-4zgjbg262zaxxjzrnrn5dq63faiv6uvo/platforms/linux64GccDPInt32-spack/bin/simpleFoam -parallel
Date   : Sep 11 2020
Time   : 10:41:42
Host   : "openhpc-compute-0"
PID    : 36830
I/O    : uncollated
Case   : /alaska/steveb/hpc-tests/stage/alaska/roce-gcc9-openmpi4-ucx/openfoam/Openfoam_Mbike_16
nProcs : 512
Slaves : 
511
(
"openhpc-compute-0.36831"
"openhpc-compute-0.36832"
"openhpc-compute-0.36833"
"openhpc-compute-0.36834"
"openhpc-compute-0.36835"
"openhpc-compute-0.36836"
"openhpc-compute-0.36837"
"openhpc-compute-0.36838"
"openhpc-compute-0.36839"
"openhpc-compute-0.36840"
"openhpc-compute-0.36841"
"openhpc-compute-0.36842"
"openhpc-compute-0.36843"
"openhpc-compute-0.36844"
"openhpc-compute-0.36845"
"openhpc-compute-0.36846"
"openhpc-compute-0.36847"
"openhpc-compute-0.36848"
"openhpc-compute-0.36849"
"openhpc-compute-0.36850"
"openhpc-compute-0.36851"
"openhpc-compute-0.36852"
"openhpc-compute-0.36853"
"openhpc-compute-0.36854"
"openhpc-compute-0.36855"
"openhpc-compute-0.36856"
"openhpc-compute-0.36857"
"openhpc-compute-0.36858"
"openhpc-compute-0.36859"
"openhpc-compute-0.36860"
"openhpc-compute-0.36861"
"openhpc-compute-1.59766"
"openhpc-compute-1.59767"
"openhpc-compute-1.59768"
"openhpc-compute-1.59769"
"openhpc-compute-1.59770"
"openhpc-compute-1.59771"
"openhpc-compute-1.59772"
"openhpc-compute-1.59773"
"openhpc-compute-1.59774"
"openhpc-compute-1.59775"
"openhpc-compute-1.59776"
"openhpc-compute-1.59777"
"openhpc-compute-1.59778"
"openhpc-compute-1.59779"
"openhpc-compute-1.59780"
"openhpc-compute-1.59781"
"openhpc-compute-1.59782"
"openhpc-compute-1.59783"
"openhpc-compute-1.59784"
"openhpc-compute-1.59785"
"openhpc-compute-1.59786"
"openhpc-compute-1.59787"
"openhpc-compute-1.59788"
"openhpc-compute-1.59789"
"openhpc-compute-1.59790"
"openhpc-compute-1.59791"
"openhpc-compute-1.59792"
"openhpc-compute-1.59793"
"openhpc-compute-1.59794"
"openhpc-compute-1.59795"
"openhpc-compute-1.59796"
"openhpc-compute-1.59797"
"openhpc-compute-2.397"
"openhpc-compute-2.398"
"openhpc-compute-2.399"
"openhpc-compute-2.400"
"openhpc-compute-2.401"
"openhpc-compute-2.402"
"openhpc-compute-2.403"
"openhpc-compute-2.404"
"openhpc-compute-2.405"
"openhpc-compute-2.406"
"openhpc-compute-2.407"
"openhpc-compute-2.408"
"openhpc-compute-2.409"
"openhpc-compute-2.410"
"openhpc-compute-2.411"
"openhpc-compute-2.412"
"openhpc-compute-2.413"
"openhpc-compute-2.414"
"openhpc-compute-2.415"
"openhpc-compute-2.416"
"openhpc-compute-2.417"
"openhpc-compute-2.418"
"openhpc-compute-2.419"
"openhpc-compute-2.420"
"openhpc-compute-2.421"
"openhpc-compute-2.422"
"openhpc-compute-2.423"
"openhpc-compute-2.424"
"openhpc-compute-2.425"
"openhpc-compute-2.426"
"openhpc-compute-2.427"
"openhpc-compute-2.428"
"openhpc-compute-3.51050"
"openhpc-compute-3.51051"
"openhpc-compute-3.51052"
"openhpc-compute-3.51053"
"openhpc-compute-3.51054"
"openhpc-compute-3.51055"
"openhpc-compute-3.51056"
"openhpc-compute-3.51057"
"openhpc-compute-3.51058"
"openhpc-compute-3.51059"
"openhpc-compute-3.51060"
"openhpc-compute-3.51061"
"openhpc-compute-3.51062"
"openhpc-compute-3.51063"
"openhpc-compute-3.51064"
"openhpc-compute-3.51065"
"openhpc-compute-3.51066"
"openhpc-compute-3.51067"
"openhpc-compute-3.51068"
"openhpc-compute-3.51069"
"openhpc-compute-3.51070"
"openhpc-compute-3.51071"
"openhpc-compute-3.51072"
"openhpc-compute-3.51073"
"openhpc-compute-3.51074"
"openhpc-compute-3.51075"
"openhpc-compute-3.51076"
"openhpc-compute-3.51077"
"openhpc-compute-3.51078"
"openhpc-compute-3.51079"
"openhpc-compute-3.51080"
"openhpc-compute-3.51081"
"openhpc-compute-4.697"
"openhpc-compute-4.698"
"openhpc-compute-4.702"
"openhpc-compute-4.703"
"openhpc-compute-4.704"
"openhpc-compute-4.705"
"openhpc-compute-4.706"
"openhpc-compute-4.707"
"openhpc-compute-4.708"
"openhpc-compute-4.709"
"openhpc-compute-4.710"
"openhpc-compute-4.711"
"openhpc-compute-4.712"
"openhpc-compute-4.713"
"openhpc-compute-4.714"
"openhpc-compute-4.715"
"openhpc-compute-4.716"
"openhpc-compute-4.717"
"openhpc-compute-4.718"
"openhpc-compute-4.719"
"openhpc-compute-4.720"
"openhpc-compute-4.721"
"openhpc-compute-4.722"
"openhpc-compute-4.723"
"openhpc-compute-4.724"
"openhpc-compute-4.725"
"openhpc-compute-4.726"
"openhpc-compute-4.727"
"openhpc-compute-4.728"
"openhpc-compute-4.729"
"openhpc-compute-4.730"
"openhpc-compute-4.731"
"openhpc-compute-5.46732"
"openhpc-compute-5.46733"
"openhpc-compute-5.46734"
"openhpc-compute-5.46735"
"openhpc-compute-5.46736"
"openhpc-compute-5.46737"
"openhpc-compute-5.46738"
"openhpc-compute-5.46739"
"openhpc-compute-5.46740"
"openhpc-compute-5.46741"
"openhpc-compute-5.46742"
"openhpc-compute-5.46743"
"openhpc-compute-5.46744"
"openhpc-compute-5.46745"
"openhpc-compute-5.46746"
"openhpc-compute-5.46747"
"openhpc-compute-5.46748"
"openhpc-compute-5.46749"
"openhpc-compute-5.46750"
"openhpc-compute-5.46751"
"openhpc-compute-5.46752"
"openhpc-compute-5.46753"
"openhpc-compute-5.46754"
"openhpc-compute-5.46755"
"openhpc-compute-5.46756"
"openhpc-compute-5.46757"
"openhpc-compute-5.46758"
"openhpc-compute-5.46759"
"openhpc-compute-5.46760"
"openhpc-compute-5.46761"
"openhpc-compute-5.46762"
"openhpc-compute-5.46763"
"openhpc-compute-6.30356"
"openhpc-compute-6.30357"
"openhpc-compute-6.30358"
"openhpc-compute-6.30359"
"openhpc-compute-6.30360"
"openhpc-compute-6.30361"
"openhpc-compute-6.30362"
"openhpc-compute-6.30363"
"openhpc-compute-6.30364"
"openhpc-compute-6.30365"
"openhpc-compute-6.30366"
"openhpc-compute-6.30367"
"openhpc-compute-6.30368"
"openhpc-compute-6.30369"
"openhpc-compute-6.30370"
"openhpc-compute-6.30371"
"openhpc-compute-6.30372"
"openhpc-compute-6.30373"
"openhpc-compute-6.30374"
"openhpc-compute-6.30375"
"openhpc-compute-6.30376"
"openhpc-compute-6.30377"
"openhpc-compute-6.30378"
"openhpc-compute-6.30379"
"openhpc-compute-6.30380"
"openhpc-compute-6.30381"
"openhpc-compute-6.30382"
"openhpc-compute-6.30383"
"openhpc-compute-6.30384"
"openhpc-compute-6.30385"
"openhpc-compute-6.30386"
"openhpc-compute-6.30387"
"openhpc-compute-7.4160"
"openhpc-compute-7.4161"
"openhpc-compute-7.4162"
"openhpc-compute-7.4163"
"openhpc-compute-7.4164"
"openhpc-compute-7.4165"
"openhpc-compute-7.4166"
"openhpc-compute-7.4167"
"openhpc-compute-7.4168"
"openhpc-compute-7.4169"
"openhpc-compute-7.4170"
"openhpc-compute-7.4171"
"openhpc-compute-7.4172"
"openhpc-compute-7.4173"
"openhpc-compute-7.4174"
"openhpc-compute-7.4175"
"openhpc-compute-7.4176"
"openhpc-compute-7.4177"
"openhpc-compute-7.4178"
"openhpc-compute-7.4179"
"openhpc-compute-7.4180"
"openhpc-compute-7.4181"
"openhpc-compute-7.4182"
"openhpc-compute-7.4183"
"openhpc-compute-7.4184"
"openhpc-compute-7.4185"
"openhpc-compute-7.4186"
"openhpc-compute-7.4187"
"openhpc-compute-7.4188"
"openhpc-compute-7.4189"
"openhpc-compute-7.4190"
"openhpc-compute-7.4191"
"openhpc-compute-8.57271"
"openhpc-compute-8.57273"
"openhpc-compute-8.57274"
"openhpc-compute-8.57275"
"openhpc-compute-8.57276"
"openhpc-compute-8.57277"
"openhpc-compute-8.57278"
"openhpc-compute-8.57283"
"openhpc-compute-8.57284"
"openhpc-compute-8.57285"
"openhpc-compute-8.57286"
"openhpc-compute-8.57287"
"openhpc-compute-8.57288"
"openhpc-compute-8.57289"
"openhpc-compute-8.57290"
"openhpc-compute-8.57291"
"openhpc-compute-8.57292"
"openhpc-compute-8.57293"
"openhpc-compute-8.57294"
"openhpc-compute-8.57295"
"openhpc-compute-8.57296"
"openhpc-compute-8.57297"
"openhpc-compute-8.57299"
"openhpc-compute-8.57300"
"openhpc-compute-8.57309"
"openhpc-compute-8.57310"
"openhpc-compute-8.57311"
"openhpc-compute-8.57312"
"openhpc-compute-8.57313"
"openhpc-compute-8.57314"
"openhpc-compute-8.57315"
"openhpc-compute-8.57316"
"openhpc-compute-9.50627"
"openhpc-compute-9.50628"
"openhpc-compute-9.50629"
"openhpc-compute-9.50630"
"openhpc-compute-9.50631"
"openhpc-compute-9.50632"
"openhpc-compute-9.50633"
"openhpc-compute-9.50634"
"openhpc-compute-9.50639"
"openhpc-compute-9.50640"
"openhpc-compute-9.50641"
"openhpc-compute-9.50642"
"openhpc-compute-9.50643"
"openhpc-compute-9.50644"
"openhpc-compute-9.50645"
"openhpc-compute-9.50646"
"openhpc-compute-9.50647"
"openhpc-compute-9.50648"
"openhpc-compute-9.50649"
"openhpc-compute-9.50650"
"openhpc-compute-9.50651"
"openhpc-compute-9.50652"
"openhpc-compute-9.50653"
"openhpc-compute-9.50654"
"openhpc-compute-9.50655"
"openhpc-compute-9.50656"
"openhpc-compute-9.50657"
"openhpc-compute-9.50658"
"openhpc-compute-9.50659"
"openhpc-compute-9.50660"
"openhpc-compute-9.50661"
"openhpc-compute-9.50662"
"openhpc-compute-10.29097"
"openhpc-compute-10.29098"
"openhpc-compute-10.29099"
"openhpc-compute-10.29100"
"openhpc-compute-10.29101"
"openhpc-compute-10.29102"
"openhpc-compute-10.29103"
"openhpc-compute-10.29104"
"openhpc-compute-10.29105"
"openhpc-compute-10.29106"
"openhpc-compute-10.29107"
"openhpc-compute-10.29108"
"openhpc-compute-10.29109"
"openhpc-compute-10.29110"
"openhpc-compute-10.29111"
"openhpc-compute-10.29112"
"openhpc-compute-10.29113"
"openhpc-compute-10.29114"
"openhpc-compute-10.29115"
"openhpc-compute-10.29116"
"openhpc-compute-10.29117"
"openhpc-compute-10.29118"
"openhpc-compute-10.29119"
"openhpc-compute-10.29120"
"openhpc-compute-10.29121"
"openhpc-compute-10.29122"
"openhpc-compute-10.29123"
"openhpc-compute-10.29124"
"openhpc-compute-10.29125"
"openhpc-compute-10.29126"
"openhpc-compute-10.29127"
"openhpc-compute-10.29128"
"openhpc-compute-11.8885"
"openhpc-compute-11.8886"
"openhpc-compute-11.8887"
"openhpc-compute-11.8888"
"openhpc-compute-11.8889"
"openhpc-compute-11.8890"
"openhpc-compute-11.8891"
"openhpc-compute-11.8892"
"openhpc-compute-11.8893"
"openhpc-compute-11.8894"
"openhpc-compute-11.8895"
"openhpc-compute-11.8896"
"openhpc-compute-11.8897"
"openhpc-compute-11.8898"
"openhpc-compute-11.8899"
"openhpc-compute-11.8900"
"openhpc-compute-11.8901"
"openhpc-compute-11.8902"
"openhpc-compute-11.8903"
"openhpc-compute-11.8904"
"openhpc-compute-11.8905"
"openhpc-compute-11.8906"
"openhpc-compute-11.8907"
"openhpc-compute-11.8908"
"openhpc-compute-11.8909"
"openhpc-compute-11.8910"
"openhpc-compute-11.8911"
"openhpc-compute-11.8912"
"openhpc-compute-11.8913"
"openhpc-compute-11.8914"
"openhpc-compute-11.8915"
"openhpc-compute-11.8916"
"openhpc-compute-12.53199"
"openhpc-compute-12.53200"
"openhpc-compute-12.53201"
"openhpc-compute-12.53202"
"openhpc-compute-12.53203"
"openhpc-compute-12.53204"
"openhpc-compute-12.53205"
"openhpc-compute-12.53206"
"openhpc-compute-12.53207"
"openhpc-compute-12.53208"
"openhpc-compute-12.53209"
"openhpc-compute-12.53210"
"openhpc-compute-12.53211"
"openhpc-compute-12.53212"
"openhpc-compute-12.53213"
"openhpc-compute-12.53214"
"openhpc-compute-12.53215"
"openhpc-compute-12.53216"
"openhpc-compute-12.53217"
"openhpc-compute-12.53218"
"openhpc-compute-12.53219"
"openhpc-compute-12.53220"
"openhpc-compute-12.53221"
"openhpc-compute-12.53222"
"openhpc-compute-12.53223"
"openhpc-compute-12.53224"
"openhpc-compute-12.53225"
"openhpc-compute-12.53226"
"openhpc-compute-12.53227"
"openhpc-compute-12.53228"
"openhpc-compute-12.53229"
"openhpc-compute-12.53230"
"openhpc-compute-13.51361"
"openhpc-compute-13.51362"
"openhpc-compute-13.51363"
"openhpc-compute-13.51364"
"openhpc-compute-13.51365"
"openhpc-compute-13.51366"
"openhpc-compute-13.51367"
"openhpc-compute-13.51368"
"openhpc-compute-13.51369"
"openhpc-compute-13.51370"
"openhpc-compute-13.51371"
"openhpc-compute-13.51372"
"openhpc-compute-13.51373"
"openhpc-compute-13.51374"
"openhpc-compute-13.51375"
"openhpc-compute-13.51376"
"openhpc-compute-13.51377"
"openhpc-compute-13.51378"
"openhpc-compute-13.51379"
"openhpc-compute-13.51380"
"openhpc-compute-13.51381"
"openhpc-compute-13.51382"
"openhpc-compute-13.51383"
"openhpc-compute-13.51384"
"openhpc-compute-13.51385"
"openhpc-compute-13.51386"
"openhpc-compute-13.51387"
"openhpc-compute-13.51388"
"openhpc-compute-13.51389"
"openhpc-compute-13.51390"
"openhpc-compute-13.51391"
"openhpc-compute-13.51392"
"openhpc-compute-14.23294"
"openhpc-compute-14.23295"
"openhpc-compute-14.23296"
"openhpc-compute-14.23297"
"openhpc-compute-14.23298"
"openhpc-compute-14.23299"
"openhpc-compute-14.23300"
"openhpc-compute-14.23301"
"openhpc-compute-14.23302"
"openhpc-compute-14.23303"
"openhpc-compute-14.23304"
"openhpc-compute-14.23305"
"openhpc-compute-14.23306"
"openhpc-compute-14.23307"
"openhpc-compute-14.23308"
"openhpc-compute-14.23309"
"openhpc-compute-14.23310"
"openhpc-compute-14.23311"
"openhpc-compute-14.23312"
"openhpc-compute-14.23313"
"openhpc-compute-14.23314"
"openhpc-compute-14.23315"
"openhpc-compute-14.23316"
"openhpc-compute-14.23317"
"openhpc-compute-14.23318"
"openhpc-compute-14.23319"
"openhpc-compute-14.23320"
"openhpc-compute-14.23321"
"openhpc-compute-14.23322"
"openhpc-compute-14.23323"
"openhpc-compute-14.23324"
"openhpc-compute-14.23325"
"openhpc-compute-15.11682"
"openhpc-compute-15.11683"
"openhpc-compute-15.11684"
"openhpc-compute-15.11685"
"openhpc-compute-15.11686"
"openhpc-compute-15.11687"
"openhpc-compute-15.11688"
"openhpc-compute-15.11689"
"openhpc-compute-15.11690"
"openhpc-compute-15.11691"
"openhpc-compute-15.11692"
"openhpc-compute-15.11693"
"openhpc-compute-15.11694"
"openhpc-compute-15.11695"
"openhpc-compute-15.11696"
"openhpc-compute-15.11697"
"openhpc-compute-15.11698"
"openhpc-compute-15.11699"
"openhpc-compute-15.11700"
"openhpc-compute-15.11701"
"openhpc-compute-15.11702"
"openhpc-compute-15.11703"
"openhpc-compute-15.11704"
"openhpc-compute-15.11705"
"openhpc-compute-15.11706"
"openhpc-compute-15.11707"
"openhpc-compute-15.11708"
"openhpc-compute-15.11709"
"openhpc-compute-15.11710"
"openhpc-compute-15.11711"
"openhpc-compute-15.11712"
"openhpc-compute-15.11713"
)

Pstream initialized with:
    floatTransfer      : 0
    nProcsSimpleSum    : 0
    commsType          : nonBlocking
    polling iterations : 0
sigFpe : Enabling floating point exception trapping (FOAM_SIGFPE).
fileModificationChecking : Monitoring run-time modified files using timeStampMaster (fileModificationSkew 10)
allowSystemOperations : Allowing user-supplied system call operations

// * * * * * * * * * * * * * * * * * * * * * * * * * * * * * * * * * * * * * //
Create time

Create mesh for time = 0


SIMPLE: No convergence criteria found

Reading field p

Reading field U

Reading/calculating face flux field phi

Selecting incompressible transport model Newtonian
Selecting turbulence model type RAS
Selecting RAS turbulence model kOmegaSST
Selecting patchDistMethod meshWave
RAS
{
    RASModel        kOmegaSST;
    turbulence      on;
    printCoeffs     on;
    alphaK1         0.85;
    alphaK2         1;
    alphaOmega1     0.5;
    alphaOmega2     0.856;
    gamma1          0.555556;
    gamma2          0.44;
    beta1           0.075;
    beta2           0.0828;
    betaStar        0.09;
    a1              0.31;
    b1              1;
    c1              10;
    F3              false;
}

No MRF models present

No finite volume options present

Starting time loop

Reading surface description:
    yNormal

forces forceCoeffs1:
    Not including porosity effects
forceCoeffs forceCoeffs1:
    Not including porosity effects
Time = 1

smoothSolver:  Solving for Ux, Initial residual = 1, Final residual = 0.0885116, No Iterations 14
smoothSolver:  Solving for Uy, Initial residual = 1, Final residual = 0.0975268, No Iterations 12
smoothSolver:  Solving for Uz, Initial residual = 1, Final residual = 0.0907011, No Iterations 13
GAMG:  Solving for p, Initial residual = 1, Final residual = 0.00948257, No Iterations 6
time step continuity errors : sum local = 0.00067146, global = 1.14336e-05, cumulative = 1.14336e-05
smoothSolver:  Solving for omega, Initial residual = 0.0282419, Final residual = 0.00134936, No Iterations 3
bounding omega, min: -8704.26 max: 543090 average: 491.822
smoothSolver:  Solving for k, Initial residual = 1, Final residual = 0.0782739, No Iterations 4
ExecutionTime = 1.2 s  ClockTime = 2 s

forceCoeffs forceCoeffs1 write:
    Cm    = 12.3671
    Cd    = 26.7399
    Cl    = -1.70839
    Cl(f) = 11.5129
    Cl(r) = -13.2213

Time = 2

smoothSolver:  Solving for Ux, Initial residual = 0.107074, Final residual = 0.00908435, No Iterations 12
smoothSolver:  Solving for Uy, Initial residual = 0.516852, Final residual = 0.0480465, No Iterations 11
smoothSolver:  Solving for Uz, Initial residual = 0.399539, Final residual = 0.0363412, No Iterations 11
GAMG:  Solving for p, Initial residual = 0.231624, Final residual = 0.00221333, No Iterations 4
time step continuity errors : sum local = 0.00991779, global = -1.18588e-05, cumulative = -4.25177e-07
smoothSolver:  Solving for omega, Initial residual = 1, Final residual = 0.0859329, No Iterations 3
smoothSolver:  Solving for k, Initial residual = 0.980458, Final residual = 2.36836e-09, No Iterations 1
ExecutionTime = 1.38 s  ClockTime = 3 s

forceCoeffs forceCoeffs1 write:
    Cm    = 4.75369
    Cd    = 10.8664
    Cl    = -0.396473
    Cl(f) = 4.55545
    Cl(r) = -4.95193

Time = 3

smoothSolver:  Solving for Ux, Initial residual = 0.140012, Final residual = 0.010685, No Iterations 5
smoothSolver:  Solving for Uy, Initial residual = 0.571173, Final residual = 0.0565863, No Iterations 5
smoothSolver:  Solving for Uz, Initial residual = 0.630861, Final residual = 0.0462967, No Iterations 5
GAMG:  Solving for p, Initial residual = 0.14296, Final residual = 0.000754821, No Iterations 5
time step continuity errors : sum local = 0.00273679, global = 1.78965e-06, cumulative = 1.36447e-06
smoothSolver:  Solving for omega, Initial residual = 0.538467, Final residual = 1.83164e-14, No Iterations 1
bounding omega, min: -3.92199e+11 max: 1.62053e+17 average: 3.63924e+11
smoothSolver:  Solving for k, Initial residual = 0.123189, Final residual = 2.84974e-09, No Iterations 1
ExecutionTime = 1.46 s  ClockTime = 3 s

forceCoeffs forceCoeffs1 write:
    Cm    = 3.37499
    Cd    = 7.6801
    Cl    = -1.35469
    Cl(f) = 2.69764
    Cl(r) = -4.05233

Time = 4

smoothSolver:  Solving for Ux, Initial residual = 0.0637268, Final residual = 0.00532403, No Iterations 6
smoothSolver:  Solving for Uy, Initial residual = 0.493978, Final residual = 0.0429126, No Iterations 6
smoothSolver:  Solving for Uz, Initial residual = 0.46177, Final residual = 0.035196, No Iterations 6
GAMG:  Solving for p, Initial residual = 0.0814358, Final residual = 0.000384529, No Iterations 5
time step continuity errors : sum local = 0.00161673, global = -1.4509e-06, cumulative = -8.6425e-08
smoothSolver:  Solving for omega, Initial residual = 0.538467, Final residual = 8.6458e-14, No Iterations 1
bounding omega, min: -7.32898e+08 max: 4.8616e+16 average: 1.09218e+11
smoothSolver:  Solving for k, Initial residual = 0.028772, Final residual = 7.64632e-09, No Iterations 1
ExecutionTime = 1.56 s  ClockTime = 3 s

forceCoeffs forceCoeffs1 write:
    Cm    = 1.61072
    Cd    = 4.0387
    Cl    = -0.654406
    Cl(f) = 1.28352
    Cl(r) = -1.93792

Time = 5

smoothSolver:  Solving for Ux, Initial residual = 0.0287915, Final residual = 0.00254735, No Iterations 7
smoothSolver:  Solving for Uy, Initial residual = 0.377836, Final residual = 0.0290372, No Iterations 7
smoothSolver:  Solving for Uz, Initial residual = 0.333504, Final residual = 0.0309908, No Iterations 6
GAMG:  Solving for p, Initial residual = 0.060676, Final residual = 0.000537505, No Iterations 4
time step continuity errors : sum local = 0.00260092, global = 5.57236e-06, cumulative = 5.48594e-06
smoothSolver:  Solving for omega, Initial residual = 0.538467, Final residual = 4.40984e-13, No Iterations 1
bounding omega, min: -464478 max: 2.75471e+16 average: 5.62859e+10
smoothSolver:  Solving for k, Initial residual = 0.357019, Final residual = 5.94431e-09, No Iterations 1
ExecutionTime = 1.73 s  ClockTime = 3 s

forceCoeffs forceCoeffs1 write:
    Cm    = 0.878535
    Cd    = 2.24075
    Cl    = -0.26312
    Cl(f) = 0.746975
    Cl(r) = -1.01009

Time = 6

smoothSolver:  Solving for Ux, Initial residual = 0.0196794, Final residual = 0.00176795, No Iterations 7
smoothSolver:  Solving for Uy, Initial residual = 0.28676, Final residual = 0.0247061, No Iterations 7
smoothSolver:  Solving for Uz, Initial residual = 0.270673, Final residual = 0.0207742, No Iterations 7
GAMG:  Solving for p, Initial residual = 0.0511854, Final residual = 0.000402675, No Iterations 4
time step continuity errors : sum local = 0.00196342, global = 1.04923e-05, cumulative = 1.59782e-05
smoothSolver:  Solving for omega, Initial residual = 0.538464, Final residual = 1.10017e-13, No Iterations 1
bounding omega, min: -3.16516e+10 max: 8.26414e+15 average: 1.80028e+10
smoothSolver:  Solving for k, Initial residual = 0.0924644, Final residual = 1.09272e-08, No Iterations 1
ExecutionTime = 1.79 s  ClockTime = 3 s

forceCoeffs forceCoeffs1 write:
    Cm    = 0.52692
    Cd    = 1.32501
    Cl    = -0.0701883
    Cl(f) = 0.491826
    Cl(r) = -0.562014

Time = 7

smoothSolver:  Solving for Ux, Initial residual = 0.0143477, Final residual = 0.00140422, No Iterations 7
smoothSolver:  Solving for Uy, Initial residual = 0.246355, Final residual = 0.0232625, No Iterations 7
smoothSolver:  Solving for Uz, Initial residual = 0.236364, Final residual = 0.0201377, No Iterations 7
GAMG:  Solving for p, Initial residual = 0.0460484, Final residual = 0.000318728, No Iterations 4
time step continuity errors : sum local = 0.00152697, global = -3.4466e-06, cumulative = 1.25316e-05
smoothSolver:  Solving for omega, Initial residual = 0.538465, Final residual = 1.88346e-13, No Iterations 1
bounding omega, min: -3.99162e+08 max: 2.47924e+15 average: 5.4024e+09
smoothSolver:  Solving for k, Initial residual = 0.0227476, Final residual = 2.9998e-08, No Iterations 1
ExecutionTime = 1.88 s  ClockTime = 3 s

forceCoeffs forceCoeffs1 write:
    Cm    = 0.378299
    Cd    = 0.91021
    Cl    = 0.0144101
    Cl(f) = 0.385504
    Cl(r) = -0.371094

Time = 8

smoothSolver:  Solving for Ux, Initial residual = 0.0118855, Final residual = 0.000937643, No Iterations 8
smoothSolver:  Solving for Uy, Initial residual = 0.22975, Final residual = 0.0223343, No Iterations 7
smoothSolver:  Solving for Uz, Initial residual = 0.228303, Final residual = 0.0201686, No Iterations 7
GAMG:  Solving for p, Initial residual = 0.0439242, Final residual = 0.000288839, No Iterations 4
time step continuity errors : sum local = 0.00131418, global = -4.37242e-06, cumulative = 8.15921e-06
smoothSolver:  Solving for omega, Initial residual = 0.538465, Final residual = 8.37575e-13, No Iterations 1
bounding omega, min: -1.78327e+06 max: 7.43773e+14 average: 1.62077e+09
smoothSolver:  Solving for k, Initial residual = 0.00621546, Final residual = 9.1701e-08, No Iterations 1
ExecutionTime = 1.95 s  ClockTime = 3 s

forceCoeffs forceCoeffs1 write:
    Cm    = 0.306896
    Cd    = 0.696877
    Cl    = 0.0178084
    Cl(f) = 0.3158
    Cl(r) = -0.297992

Time = 9

smoothSolver:  Solving for Ux, Initial residual = 0.0101711, Final residual = 0.000827011, No Iterations 8
smoothSolver:  Solving for Uy, Initial residual = 0.21581, Final residual = 0.0167127, No Iterations 8
smoothSolver:  Solving for Uz, Initial residual = 0.230687, Final residual = 0.021194, No Iterations 7
GAMG:  Solving for p, Initial residual = 0.0427144, Final residual = 0.000279279, No Iterations 4
time step continuity errors : sum local = 0.00120374, global = -4.7612e-06, cumulative = 3.39801e-06
smoothSolver:  Solving for omega, Initial residual = 0.538465, Final residual = 2.62144e-12, No Iterations 1
bounding omega, min: -177774 max: 2.23132e+14 average: 4.86236e+08
smoothSolver:  Solving for k, Initial residual = 0.00175799, Final residual = 2.90712e-07, No Iterations 1
ExecutionTime = 2.02 s  ClockTime = 3 s

forceCoeffs forceCoeffs1 write:
    Cm    = 0.274875
    Cd    = 0.599422
    Cl    = 0.000154112
    Cl(f) = 0.274952
    Cl(r) = -0.274798

Time = 10

smoothSolver:  Solving for Ux, Initial residual = 0.00893274, Final residual = 0.000746992, No Iterations 8
smoothSolver:  Solving for Uy, Initial residual = 0.185357, Final residual = 0.0146183, No Iterations 8
smoothSolver:  Solving for Uz, Initial residual = 0.206517, Final residual = 0.0199476, No Iterations 7
GAMG:  Solving for p, Initial residual = 0.0416454, Final residual = 0.000284881, No Iterations 4
time step continuity errors : sum local = 0.00117235, global = -4.83183e-06, cumulative = -1.43382e-06
smoothSolver:  Solving for omega, Initial residual = 0.538465, Final residual = 7.89332e-12, No Iterations 1
bounding omega, min: -76867.1 max: 6.69396e+13 average: 1.45875e+08
smoothSolver:  Solving for k, Initial residual = 0.000507353, Final residual = 9.37826e-07, No Iterations 1
ExecutionTime = 2.12 s  ClockTime = 3 s

forceCoeffs forceCoeffs1 write:
    Cm    = 0.240625
    Cd    = 0.51825
    Cl    = -0.0146491
    Cl(f) = 0.233301
    Cl(r) = -0.24795

Time = 11

smoothSolver:  Solving for Ux, Initial residual = 0.00811373, Final residual = 0.000699418, No Iterations 8
smoothSolver:  Solving for Uy, Initial residual = 0.165048, Final residual = 0.0134128, No Iterations 8
smoothSolver:  Solving for Uz, Initial residual = 0.177239, Final residual = 0.0138578, No Iterations 8
GAMG:  Solving for p, Initial residual = 0.0407457, Final residual = 0.000286582, No Iterations 4
time step continuity errors : sum local = 0.00113566, global = -6.3853e-06, cumulative = -7.81913e-06
smoothSolver:  Solving for omega, Initial residual = 0.538465, Final residual = 2.81919e-11, No Iterations 1
bounding omega, min: -84403.2 max: 2.00819e+13 average: 4.37655e+07
smoothSolver:  Solving for k, Initial residual = 0.000154768, Final residual = 3.04554e-06, No Iterations 1
ExecutionTime = 2.21 s  ClockTime = 3 s

forceCoeffs forceCoeffs1 write:
    Cm    = 0.216759
    Cd    = 0.477583
    Cl    = -0.041103
    Cl(f) = 0.196208
    Cl(r) = -0.237311

Time = 12

smoothSolver:  Solving for Ux, Initial residual = 0.00830103, Final residual = 0.000684178, No Iterations 8
smoothSolver:  Solving for Uy, Initial residual = 0.156223, Final residual = 0.012977, No Iterations 8
smoothSolver:  Solving for Uz, Initial residual = 0.166028, Final residual = 0.016374, No Iterations 7
GAMG:  Solving for p, Initial residual = 0.0396262, Final residual = 0.000292203, No Iterations 4
time step continuity errors : sum local = 0.00112147, global = -4.88938e-06, cumulative = -1.27085e-05
smoothSolver:  Solving for omega, Initial residual = 0.538465, Final residual = 1.12171e-10, No Iterations 1
bounding omega, min: -84449.9 max: 6.02456e+12 average: 1.31309e+07
smoothSolver:  Solving for k, Initial residual = 7.1285e-05, Final residual = 4.93743e-06, No Iterations 2
ExecutionTime = 2.27 s  ClockTime = 3 s

forceCoeffs forceCoeffs1 write:
    Cm    = 0.173759
    Cd    = 0.369052
    Cl    = -0.0829752
    Cl(f) = 0.132271
    Cl(r) = -0.215246

Time = 13

smoothSolver:  Solving for Ux, Initial residual = 0.00933498, Final residual = 0.000878683, No Iterations 7
smoothSolver:  Solving for Uy, Initial residual = 0.159347, Final residual = 0.0159155, No Iterations 7
smoothSolver:  Solving for Uz, Initial residual = 0.180111, Final residual = 0.0158442, No Iterations 7
GAMG:  Solving for p, Initial residual = 0.03907, Final residual = 0.000338566, No Iterations 4
time step continuity errors : sum local = 0.00126507, global = -7.72403e-06, cumulative = -2.04325e-05
smoothSolver:  Solving for omega, Initial residual = 0.538465, Final residual = 4.16883e-10, No Iterations 1
bounding omega, min: -160761 max: 1.80737e+12 average: 3.94048e+06
smoothSolver:  Solving for k, Initial residual = 0.000121443, Final residual = 9.03135e-06, No Iterations 3
bounding k, min: -7.43741e-05 max: 430.427 average: 0.545524
ExecutionTime = 2.37 s  ClockTime = 4 s

forceCoeffs forceCoeffs1 write:
    Cm    = 0.235722
    Cd    = 0.55911
    Cl    = 0.0246411
    Cl(f) = 0.248042
    Cl(r) = -0.223401

Time = 14

smoothSolver:  Solving for Ux, Initial residual = 0.0102834, Final residual = 0.000949624, No Iterations 7
smoothSolver:  Solving for Uy, Initial residual = 0.164461, Final residual = 0.0161531, No Iterations 7
smoothSolver:  Solving for Uz, Initial residual = 0.222679, Final residual = 0.0172105, No Iterations 7
GAMG:  Solving for p, Initial residual = 0.038367, Final residual = 0.000323327, No Iterations 4
time step continuity errors : sum local = 0.00117207, global = -2.72491e-06, cumulative = -2.31574e-05
smoothSolver:  Solving for omega, Initial residual = 0.538465, Final residual = 1.20833e-09, No Iterations 1
bounding omega, min: -4773.19 max: 5.42211e+11 average: 1.18317e+06
smoothSolver:  Solving for k, Initial residual = 0.000371981, Final residual = 3.22569e-05, No Iterations 3
bounding k, min: -6.32414e-05 max: 521.343 average: 0.565425
ExecutionTime = 2.44 s  ClockTime = 4 s

forceCoeffs forceCoeffs1 write:
    Cm    = 0.142097
    Cd    = 0.313363
    Cl    = -0.119062
    Cl(f) = 0.0825666
    Cl(r) = -0.201628

Time = 15

smoothSolver:  Solving for Ux, Initial residual = 0.00862628, Final residual = 0.000708477, No Iterations 8
smoothSolver:  Solving for Uy, Initial residual = 0.170159, Final residual = 0.0169312, No Iterations 7
smoothSolver:  Solving for Uz, Initial residual = 0.168081, Final residual = 0.016351, No Iterations 7
GAMG:  Solving for p, Initial residual = 0.0380512, Final residual = 0.000335104, No Iterations 4
time step continuity errors : sum local = 0.00115717, global = -2.74057e-06, cumulative = -2.5898e-05
smoothSolver:  Solving for omega, Initial residual = 0.538465, Final residual = 3.29165e-09, No Iterations 1
smoothSolver:  Solving for k, Initial residual = 0.000989884, Final residual = 9.21886e-05, No Iterations 3
bounding k, min: -6.31713e-05 max: 469.689 average: 0.579312
ExecutionTime = 2.51 s  ClockTime = 4 s

forceCoeffs forceCoeffs1 write:
    Cm    = 0.147048
    Cd    = 0.34097
    Cl    = -0.0914656
    Cl(f) = 0.101315
    Cl(r) = -0.192781

Time = 16

smoothSolver:  Solving for Ux, Initial residual = 0.00689247, Final residual = 0.000678464, No Iterations 8
smoothSolver:  Solving for Uy, Initial residual = 0.137316, Final residual = 0.0126514, No Iterations 8
smoothSolver:  Solving for Uz, Initial residual = 0.137082, Final residual = 0.012485, No Iterations 8
GAMG:  Solving for p, Initial residual = 0.0377111, Final residual = 0.00031599, No Iterations 4
time step continuity errors : sum local = 0.00105044, global = -3.22467e-06, cumulative = -2.91227e-05
smoothSolver:  Solving for omega, Initial residual = 0.538464, Final residual = 8.54844e-09, No Iterations 1
bounding omega, min: -9271.76 max: 4.87989e+10 average: 107650
smoothSolver:  Solving for k, Initial residual = 0.00224453, Final residual = 0.000213116, No Iterations 3
bounding k, min: -3.99104e-05 max: 439.811 average: 0.593069
ExecutionTime = 2.64 s  ClockTime = 4 s

forceCoeffs forceCoeffs1 write:
    Cm    = 0.15716
    Cd    = 0.385312
    Cl    = -0.0609175
    Cl(f) = 0.126702
    Cl(r) = -0.187619

Time = 17

smoothSolver:  Solving for Ux, Initial residual = 0.00671408, Final residual = 0.000661238, No Iterations 8
smoothSolver:  Solving for Uy, Initial residual = 0.119387, Final residual = 0.0116042, No Iterations 8
smoothSolver:  Solving for Uz, Initial residual = 0.131014, Final residual = 0.0120838, No Iterations 8
GAMG:  Solving for p, Initial residual = 0.037123, Final residual = 0.000288244, No Iterations 4
time step continuity errors : sum local = 0.000911198, global = -2.53083e-06, cumulative = -3.16535e-05
smoothSolver:  Solving for omega, Initial residual = 0.538462, Final residual = 2.48666e-08, No Iterations 1
bounding omega, min: -8445.59 max: 1.46397e+10 average: 33139.9
smoothSolver:  Solving for k, Initial residual = 0.00401934, Final residual = 0.000383056, No Iterations 3
bounding k, min: -1.24144e-05 max: 638.666 average: 0.605994
ExecutionTime = 2.73 s  ClockTime = 4 s

forceCoeffs forceCoeffs1 write:
    Cm    = 0.16113
    Cd    = 0.397519
    Cl    = -0.0280088
    Cl(f) = 0.147126
    Cl(r) = -0.175135

Time = 18

smoothSolver:  Solving for Ux, Initial residual = 0.00604294, Final residual = 0.000518303, No Iterations 9
smoothSolver:  Solving for Uy, Initial residual = 0.109828, Final residual = 0.00888658, No Iterations 9
smoothSolver:  Solving for Uz, Initial residual = 0.119688, Final residual = 0.011846, No Iterations 8
GAMG:  Solving for p, Initial residual = 0.0372166, Final residual = 0.000295644, No Iterations 4
time step continuity errors : sum local = 0.000889575, global = -1.02351e-06, cumulative = -3.2677e-05
smoothSolver:  Solving for omega, Initial residual = 0.538455, Final residual = 9.56768e-08, No Iterations 1
smoothSolver:  Solving for k, Initial residual = 0.00621808, Final residual = 0.000552326, No Iterations 3
bounding k, min: -2.07447e-09 max: 1319.82 average: 0.622355
ExecutionTime = 2.8 s  ClockTime = 4 s

forceCoeffs forceCoeffs1 write:
    Cm    = 0.172399
    Cd    = 0.429836
    Cl    = -0.00569126
    Cl(f) = 0.169554
    Cl(r) = -0.175245

Time = 19

smoothSolver:  Solving for Ux, Initial residual = 0.00642054, Final residual = 0.000516723, No Iterations 9
smoothSolver:  Solving for Uy, Initial residual = 0.106623, Final residual = 0.00867846, No Iterations 9
smoothSolver:  Solving for Uz, Initial residual = 0.12139, Final residual = 0.0114403, No Iterations 8
GAMG:  Solving for p, Initial residual = 0.0370965, Final residual = 0.000320451, No Iterations 4
time step continuity errors : sum local = 0.00092026, global = -2.85511e-06, cumulative = -3.55321e-05
smoothSolver:  Solving for omega, Initial residual = 0.538429, Final residual = 4.49828e-07, No Iterations 1
smoothSolver:  Solving for k, Initial residual = 0.0243435, Final residual = 0.00159333, No Iterations 2
bounding k, min: -5.91845e-07 max: 3501.87 average: 0.650906
ExecutionTime = 2.87 s  ClockTime = 4 s

forceCoeffs forceCoeffs1 write:
    Cm    = 0.133647
    Cd    = 0.312641
    Cl    = -0.043479
    Cl(f) = 0.111907
    Cl(r) = -0.155386

Time = 20

smoothSolver:  Solving for Ux, Initial residual = 0.00668776, Final residual = 0.000650365, No Iterations 8
smoothSolver:  Solving for Uy, Initial residual = 0.104353, Final residual = 0.00846777, No Iterations 9
smoothSolver:  Solving for Uz, Initial residual = 0.121543, Final residual = 0.011372, No Iterations 8
GAMG:  Solving for p, Initial residual = 0.0365963, Final residual = 0.000155053, No Iterations 5
time step continuity errors : sum local = 0.00043127, global = -1.24362e-06, cumulative = -3.67758e-05
smoothSolver:  Solving for omega, Initial residual = 0.538317, Final residual = 1.62182e-06, No Iterations 1
smoothSolver:  Solving for k, Initial residual = 0.0300887, Final residual = 0.00237756, No Iterations 2
ExecutionTime = 2.93 s  ClockTime = 4 s

forceCoeffs forceCoeffs1 write:
    Cm    = 0.229961
    Cd    = 0.580406
    Cl    = 0.117884
    Cl(f) = 0.288903
    Cl(r) = -0.17102

Time = 21

smoothSolver:  Solving for Ux, Initial residual = 0.00800046, Final residual = 0.000668075, No Iterations 8
smoothSolver:  Solving for Uy, Initial residual = 0.125224, Final residual = 0.010424, No Iterations 8
smoothSolver:  Solving for Uz, Initial residual = 0.147086, Final residual = 0.0140188, No Iterations 7
GAMG:  Solving for p, Initial residual = 0.0359944, Final residual = 0.0002157, No Iterations 5
time step continuity errors : sum local = 0.000583294, global = -7.44985e-07, cumulative = -3.75207e-05
smoothSolver:  Solving for omega, Initial residual = 0.537659, Final residual = 4.48889e-06, No Iterations 1
smoothSolver:  Solving for k, Initial residual = 0.0180655, Final residual = 0.000809225, No Iterations 3
ExecutionTime = 3 s  ClockTime = 4 s

forceCoeffs forceCoeffs1 write:
    Cm    = 0.079011
    Cd    = 0.145592
    Cl    = -0.106157
    Cl(f) = 0.0259326
    Cl(r) = -0.132089

Time = 22

smoothSolver:  Solving for Ux, Initial residual = 0.00683782, Final residual = 0.000662528, No Iterations 8
smoothSolver:  Solving for Uy, Initial residual = 0.112311, Final residual = 0.0107995, No Iterations 8
smoothSolver:  Solving for Uz, Initial residual = 0.120366, Final residual = 0.0109624, No Iterations 8
GAMG:  Solving for p, Initial residual = 0.0351537, Final residual = 0.000190066, No Iterations 5
time step continuity errors : sum local = 0.000496691, global = -2.07465e-07, cumulative = -3.77282e-05
smoothSolver:  Solving for omega, Initial residual = 0.532405, Final residual = 1.41531e-05, No Iterations 1
smoothSolver:  Solving for k, Initial residual = 0.0146931, Final residual = 0.000755562, No Iterations 3
ExecutionTime = 3.08 s  ClockTime = 4 s

forceCoeffs forceCoeffs1 write:
    Cm    = 0.172197
    Cd    = 0.4073
    Cl    = 0.0132664
    Cl(f) = 0.17883
    Cl(r) = -0.165563

Time = 23

smoothSolver:  Solving for Ux, Initial residual = 0.00626318, Final residual = 0.000625114, No Iterations 8
smoothSolver:  Solving for Uy, Initial residual = 0.10685, Final residual = 0.00912279, No Iterations 9
smoothSolver:  Solving for Uz, Initial residual = 0.117534, Final residual = 0.0111517, No Iterations 8
GAMG:  Solving for p, Initial residual = 0.0340715, Final residual = 0.000337501, No Iterations 4
time step continuity errors : sum local = 0.000858198, global = -1.64456e-06, cumulative = -3.93728e-05
smoothSolver:  Solving for omega, Initial residual = 0.486324, Final residual = 6.40146e-05, No Iterations 1
smoothSolver:  Solving for k, Initial residual = 0.0102225, Final residual = 0.000694869, No Iterations 3
ExecutionTime = 3.15 s  ClockTime = 4 s

forceCoeffs forceCoeffs1 write:
    Cm    = 0.165546
    Cd    = 0.384666
    Cl    = -0.0146518
    Cl(f) = 0.15822
    Cl(r) = -0.172872

Time = 24

smoothSolver:  Solving for Ux, Initial residual = 0.00508313, Final residual = 0.000482923, No Iterations 9
smoothSolver:  Solving for Uy, Initial residual = 0.100602, Final residual = 0.00916232, No Iterations 9
smoothSolver:  Solving for Uz, Initial residual = 0.0995984, Final residual = 0.00894084, No Iterations 9
GAMG:  Solving for p, Initial residual = 0.0333967, Final residual = 0.000311296, No Iterations 4
time step continuity errors : sum local = 0.00077131, global = -2.51247e-06, cumulative = -4.18852e-05
smoothSolver:  Solving for omega, Initial residual = 0.25543, Final residual = 0.000225059, No Iterations 1
smoothSolver:  Solving for k, Initial residual = 0.0143834, Final residual = 0.000749541, No Iterations 3
ExecutionTime = 3.23 s  ClockTime = 4 s

forceCoeffs forceCoeffs1 write:
    Cm    = 0.174057
    Cd    = 0.40864
    Cl    = -0.0162573
    Cl(f) = 0.165928
    Cl(r) = -0.182186

Time = 25

smoothSolver:  Solving for Ux, Initial residual = 0.00531335, Final residual = 0.000485225, No Iterations 9
smoothSolver:  Solving for Uy, Initial residual = 0.101955, Final residual = 0.00946364, No Iterations 9
smoothSolver:  Solving for Uz, Initial residual = 0.103749, Final residual = 0.00888841, No Iterations 9
GAMG:  Solving for p, Initial residual = 0.0324156, Final residual = 0.000134993, No Iterations 5
time step continuity errors : sum local = 0.000324469, global = -4.25068e-07, cumulative = -4.23103e-05
smoothSolver:  Solving for omega, Initial residual = 0.0429584, Final residual = 0.000331447, No Iterations 1
smoothSolver:  Solving for k, Initial residual = 0.0119272, Final residual = 0.000650484, No Iterations 3
ExecutionTime = 3.3 s  ClockTime = 5 s

forceCoeffs forceCoeffs1 write:
    Cm    = 0.163796
    Cd    = 0.376703
    Cl    = -0.0184834
    Cl(f) = 0.154554
    Cl(r) = -0.173038

Time = 26

smoothSolver:  Solving for Ux, Initial residual = 0.00467368, Final residual = 0.000382699, No Iterations 10
smoothSolver:  Solving for Uy, Initial residual = 0.0982902, Final residual = 0.00949924, No Iterations 9
smoothSolver:  Solving for Uz, Initial residual = 0.0938151, Final residual = 0.00888147, No Iterations 9
GAMG:  Solving for p, Initial residual = 0.0316918, Final residual = 0.000286324, No Iterations 4
time step continuity errors : sum local = 0.000665268, global = -2.25895e-06, cumulative = -4.45693e-05
smoothSolver:  Solving for omega, Initial residual = 0.00531373, Final residual = 0.000324122, No Iterations 1
smoothSolver:  Solving for k, Initial residual = 0.0145817, Final residual = 0.000769648, No Iterations 3
ExecutionTime = 3.37 s  ClockTime = 5 s

forceCoeffs forceCoeffs1 write:
    Cm    = 0.181278
    Cd    = 0.429434
    Cl    = 0.00254339
    Cl(f) = 0.18255
    Cl(r) = -0.180006

Time = 27

smoothSolver:  Solving for Ux, Initial residual = 0.00463826, Final residual = 0.000371727, No Iterations 10
smoothSolver:  Solving for Uy, Initial residual = 0.0954751, Final residual = 0.00920177, No Iterations 9
smoothSolver:  Solving for Uz, Initial residual = 0.0909698, Final residual = 0.00874825, No Iterations 9
GAMG:  Solving for p, Initial residual = 0.0310727, Final residual = 0.000297872, No Iterations 4
time step continuity errors : sum local = 0.000669372, global = -3.9339e-06, cumulative = -4.85032e-05
smoothSolver:  Solving for omega, Initial residual = 0.00153035, Final residual = 0.00014279, No Iterations 2
smoothSolver:  Solving for k, Initial residual = 0.0137503, Final residual = 0.000704332, No Iterations 3
ExecutionTime = 3.45 s  ClockTime = 5 s

forceCoeffs forceCoeffs1 write:
    Cm    = 0.158377
    Cd    = 0.368328
    Cl    = -0.0123135
    Cl(f) = 0.152221
    Cl(r) = -0.164534

Time = 28

smoothSolver:  Solving for Ux, Initial residual = 0.00443795, Final residual = 0.000360974, No Iterations 10
smoothSolver:  Solving for Uy, Initial residual = 0.0916427, Final residual = 0.00890054, No Iterations 9
smoothSolver:  Solving for Uz, Initial residual = 0.0905815, Final residual = 0.00874764, No Iterations 9
GAMG:  Solving for p, Initial residual = 0.0304481, Final residual = 0.00013523, No Iterations 5
time step continuity errors : sum local = 0.000293673, global = -2.58864e-06, cumulative = -5.10918e-05
smoothSolver:  Solving for omega, Initial residual = 0.000885754, Final residual = 5.93413e-05, No Iterations 3
smoothSolver:  Solving for k, Initial residual = 0.0103602, Final residual = 0.00079597, No Iterations 3
ExecutionTime = 3.53 s  ClockTime = 5 s

forceCoeffs forceCoeffs1 write:
    Cm    = 0.166269
    Cd    = 0.398614
    Cl    = 0.0127843
    Cl(f) = 0.172661
    Cl(r) = -0.159877

Time = 29

smoothSolver:  Solving for Ux, Initial residual = 0.00424081, Final residual = 0.000352359, No Iterations 10
smoothSolver:  Solving for Uy, Initial residual = 0.087233, Final residual = 0.00860437, No Iterations 9
smoothSolver:  Solving for Uz, Initial residual = 0.0874976, Final residual = 0.0087212, No Iterations 9
GAMG:  Solving for p, Initial residual = 0.029783, Final residual = 0.000256846, No Iterations 4
time step continuity errors : sum local = 0.000540747, global = -6.84065e-06, cumulative = -5.79324e-05
smoothSolver:  Solving for omega, Initial residual = 0.000634942, Final residual = 5.0038e-05, No Iterations 3
smoothSolver:  Solving for k, Initial residual = 0.00842986, Final residual = 0.000684955, No Iterations 3
ExecutionTime = 3.61 s  ClockTime = 5 s

forceCoeffs forceCoeffs1 write:
    Cm    = 0.169184
    Cd    = 0.41283
    Cl    = 0.0204998
    Cl(f) = 0.179434
    Cl(r) = -0.158934

Time = 30

smoothSolver:  Solving for Ux, Initial residual = 0.00411785, Final residual = 0.000339191, No Iterations 10
smoothSolver:  Solving for Uy, Initial residual = 0.0833422, Final residual = 0.00666522, No Iterations 10
smoothSolver:  Solving for Uz, Initial residual = 0.0852287, Final residual = 0.00846065, No Iterations 9
GAMG:  Solving for p, Initial residual = 0.0290973, Final residual = 0.00026373, No Iterations 4
time step continuity errors : sum local = 0.000539496, global = -6.40595e-06, cumulative = -6.43384e-05
smoothSolver:  Solving for omega, Initial residual = 0.000623472, Final residual = 4.6488e-05, No Iterations 3
smoothSolver:  Solving for k, Initial residual = 0.00845697, Final residual = 0.000633958, No Iterations 3
ExecutionTime = 3.68 s  ClockTime = 5 s

forceCoeffs forceCoeffs1 write:
    Cm    = 0.162987
    Cd    = 0.396128
    Cl    = 0.023075
    Cl(f) = 0.174524
    Cl(r) = -0.151449

Time = 31

smoothSolver:  Solving for Ux, Initial residual = 0.00387082, Final residual = 0.000326407, No Iterations 10
smoothSolver:  Solving for Uy, Initial residual = 0.0806267, Final residual = 0.00659632, No Iterations 10
smoothSolver:  Solving for Uz, Initial residual = 0.0806498, Final residual = 0.00659012, No Iterations 10
GAMG:  Solving for p, Initial residual = 0.0287395, Final residual = 0.000125556, No Iterations 5
time step continuity errors : sum local = 0.000249425, global = -1.96156e-06, cumulative = -6.63e-05
smoothSolver:  Solving for omega, Initial residual = 0.000616392, Final residual = 4.44838e-05, No Iterations 3
smoothSolver:  Solving for k, Initial residual = 0.0087267, Final residual = 0.000652808, No Iterations 3
ExecutionTime = 3.76 s  ClockTime = 5 s

forceCoeffs forceCoeffs1 write:
    Cm    = 0.173529
    Cd    = 0.42732
    Cl    = 0.0373682
    Cl(f) = 0.192213
    Cl(r) = -0.154845

Time = 32

smoothSolver:  Solving for Ux, Initial residual = 0.0037751, Final residual = 0.000316875, No Iterations 10
smoothSolver:  Solving for Uy, Initial residual = 0.0804366, Final residual = 0.00654366, No Iterations 10
smoothSolver:  Solving for Uz, Initial residual = 0.0779106, Final residual = 0.00633493, No Iterations 10
GAMG:  Solving for p, Initial residual = 0.0284634, Final residual = 0.000273871, No Iterations 4
time step continuity errors : sum local = 0.000526313, global = -7.62906e-06, cumulative = -7.3929e-05
smoothSolver:  Solving for omega, Initial residual = 0.000589682, Final residual = 4.2455e-05, No Iterations 3
smoothSolver:  Solving for k, Initial residual = 0.00787705, Final residual = 0.000637809, No Iterations 3
ExecutionTime = 3.83 s  ClockTime = 5 s

forceCoeffs forceCoeffs1 write:
    Cm    = 0.16294
    Cd    = 0.397303
    Cl    = 0.03442
    Cl(f) = 0.18015
    Cl(r) = -0.14573

Time = 33

smoothSolver:  Solving for Ux, Initial residual = 0.00359662, Final residual = 0.000305563, No Iterations 10
smoothSolver:  Solving for Uy, Initial residual = 0.0775804, Final residual = 0.00639161, No Iterations 10
smoothSolver:  Solving for Uz, Initial residual = 0.0738028, Final residual = 0.00600808, No Iterations 10
GAMG:  Solving for p, Initial residual = 0.0278674, Final residual = 0.000114253, No Iterations 5
time step continuity errors : sum local = 0.00021541, global = -1.66732e-06, cumulative = -7.55963e-05
smoothSolver:  Solving for omega, Initial residual = 0.000533778, Final residual = 4.15451e-05, No Iterations 3
smoothSolver:  Solving for k, Initial residual = 0.0069951, Final residual = 0.000685874, No Iterations 3
ExecutionTime = 3.9 s  ClockTime = 5 s

forceCoeffs forceCoeffs1 write:
    Cm    = 0.169091
    Cd    = 0.416298
    Cl    = 0.0419447
    Cl(f) = 0.190063
    Cl(r) = -0.148119

Time = 34

smoothSolver:  Solving for Ux, Initial residual = 0.00343418, Final residual = 0.000294851, No Iterations 10
smoothSolver:  Solving for Uy, Initial residual = 0.075901, Final residual = 0.0062587, No Iterations 10
smoothSolver:  Solving for Uz, Initial residual = 0.0703451, Final residual = 0.00575119, No Iterations 10
GAMG:  Solving for p, Initial residual = 0.0272119, Final residual = 0.000235201, No Iterations 4
time step continuity errors : sum local = 0.0004329, global = -4.60318e-06, cumulative = -8.01995e-05
smoothSolver:  Solving for omega, Initial residual = 0.000457189, Final residual = 3.9493e-05, No Iterations 3
smoothSolver:  Solving for k, Initial residual = 0.00592588, Final residual = 0.000313897, No Iterations 4
ExecutionTime = 3.97 s  ClockTime = 5 s

forceCoeffs forceCoeffs1 write:
    Cm    = 0.167002
    Cd    = 0.41131
    Cl    = 0.0412704
    Cl(f) = 0.187637
    Cl(r) = -0.146366

Time = 35

smoothSolver:  Solving for Ux, Initial residual = 0.00322207, Final residual = 0.000282741, No Iterations 10
smoothSolver:  Solving for Uy, Initial residual = 0.0723179, Final residual = 0.00602511, No Iterations 10
smoothSolver:  Solving for Uz, Initial residual = 0.0653641, Final residual = 0.00549636, No Iterations 10
GAMG:  Solving for p, Initial residual = 0.0266597, Final residual = 0.000233486, No Iterations 4
time step continuity errors : sum local = 0.000422805, global = -3.93949e-06, cumulative = -8.4139e-05
smoothSolver:  Solving for omega, Initial residual = 0.000419467, Final residual = 3.84793e-05, No Iterations 3
smoothSolver:  Solving for k, Initial residual = 0.00550637, Final residual = 0.000312428, No Iterations 4
ExecutionTime = 4.04 s  ClockTime = 5 s

forceCoeffs forceCoeffs1 write:
    Cm    = 0.166317
    Cd    = 0.410579
    Cl    = 0.0462255
    Cl(f) = 0.18943
    Cl(r) = -0.143204

Time = 36

smoothSolver:  Solving for Ux, Initial residual = 0.00314699, Final residual = 0.000274929, No Iterations 10
smoothSolver:  Solving for Uy, Initial residual = 0.0698386, Final residual = 0.00584101, No Iterations 10
smoothSolver:  Solving for Uz, Initial residual = 0.0630747, Final residual = 0.00529345, No Iterations 10
GAMG:  Solving for p, Initial residual = 0.0261673, Final residual = 0.000221262, No Iterations 4
time step continuity errors : sum local = 0.000392355, global = -2.78805e-06, cumulative = -8.69271e-05
smoothSolver:  Solving for omega, Initial residual = 0.000420652, Final residual = 3.78033e-05, No Iterations 3
smoothSolver:  Solving for k, Initial residual = 0.00551315, Final residual = 0.000306215, No Iterations 4
ExecutionTime = 4.11 s  ClockTime = 5 s

forceCoeffs forceCoeffs1 write:
    Cm    = 0.163031
    Cd    = 0.403157
    Cl    = 0.0495263
    Cl(f) = 0.187794
    Cl(r) = -0.138268

Time = 37

smoothSolver:  Solving for Ux, Initial residual = 0.00299472, Final residual = 0.000268445, No Iterations 10
smoothSolver:  Solving for Uy, Initial residual = 0.0668457, Final residual = 0.00564212, No Iterations 10
smoothSolver:  Solving for Uz, Initial residual = 0.0590666, Final residual = 0.00509398, No Iterations 10
GAMG:  Solving for p, Initial residual = 0.0255948, Final residual = 0.000216319, No Iterations 4
time step continuity errors : sum local = 0.000375857, global = -2.57338e-06, cumulative = -8.95004e-05
smoothSolver:  Solving for omega, Initial residual = 0.000444985, Final residual = 3.7447e-05, No Iterations 3
smoothSolver:  Solving for k, Initial residual = 0.00554463, Final residual = 0.000304964, No Iterations 4
ExecutionTime = 4.18 s  ClockTime = 5 s

forceCoeffs forceCoeffs1 write:
    Cm    = 0.162695
    Cd    = 0.404403
    Cl    = 0.0550405
    Cl(f) = 0.190215
    Cl(r) = -0.135174

Time = 38

smoothSolver:  Solving for Ux, Initial residual = 0.00291148, Final residual = 0.000261702, No Iterations 10
smoothSolver:  Solving for Uy, Initial residual = 0.0641742, Final residual = 0.0054667, No Iterations 10
smoothSolver:  Solving for Uz, Initial residual = 0.0566223, Final residual = 0.00485478, No Iterations 10
GAMG:  Solving for p, Initial residual = 0.0249784, Final residual = 0.000209778, No Iterations 4
time step continuity errors : sum local = 0.000357849, global = -2.30212e-06, cumulative = -9.18026e-05
smoothSolver:  Solving for omega, Initial residual = 0.000390493, Final residual = 3.60207e-05, No Iterations 3
smoothSolver:  Solving for k, Initial residual = 0.00505509, Final residual = 0.000295748, No Iterations 4
ExecutionTime = 4.25 s  ClockTime = 5 s

forceCoeffs forceCoeffs1 write:
    Cm    = 0.161506
    Cd    = 0.403524
    Cl    = 0.0577087
    Cl(f) = 0.19036
    Cl(r) = -0.132652

Time = 39

smoothSolver:  Solving for Ux, Initial residual = 0.00277816, Final residual = 0.000255624, No Iterations 10
smoothSolver:  Solving for Uy, Initial residual = 0.0612118, Final residual = 0.0053043, No Iterations 10
smoothSolver:  Solving for Uz, Initial residual = 0.0525927, Final residual = 0.00459931, No Iterations 10
GAMG:  Solving for p, Initial residual = 0.0243044, Final residual = 0.000199571, No Iterations 4
time step continuity errors : sum local = 0.000334549, global = -2.25881e-06, cumulative = -9.40614e-05
smoothSolver:  Solving for omega, Initial residual = 0.000365574, Final residual = 3.49765e-05, No Iterations 3
smoothSolver:  Solving for k, Initial residual = 0.00484592, Final residual = 0.000291646, No Iterations 4
ExecutionTime = 4.31 s  ClockTime = 6 s

forceCoeffs forceCoeffs1 write:
    Cm    = 0.159688
    Cd    = 0.399809
    Cl    = 0.058312
    Cl(f) = 0.188844
    Cl(r) = -0.130532

Time = 40

smoothSolver:  Solving for Ux, Initial residual = 0.00268908, Final residual = 0.000250738, No Iterations 10
smoothSolver:  Solving for Uy, Initial residual = 0.0589365, Final residual = 0.00516628, No Iterations 10
smoothSolver:  Solving for Uz, Initial residual = 0.0496232, Final residual = 0.00437153, No Iterations 10
GAMG:  Solving for p, Initial residual = 0.0236128, Final residual = 0.000187647, No Iterations 4
time step continuity errors : sum local = 0.000309967, global = -2.11433e-06, cumulative = -9.61757e-05
smoothSolver:  Solving for omega, Initial residual = 0.00035147, Final residual = 3.41221e-05, No Iterations 3
smoothSolver:  Solving for k, Initial residual = 0.00473736, Final residual = 0.000289529, No Iterations 4
ExecutionTime = 4.39 s  ClockTime = 6 s

forceCoeffs forceCoeffs1 write:
    Cm    = 0.1589
    Cd    = 0.398651
    Cl    = 0.0594028
    Cl(f) = 0.188602
    Cl(r) = -0.129199

Time = 41

smoothSolver:  Solving for Ux, Initial residual = 0.0026358, Final residual = 0.000246412, No Iterations 10
smoothSolver:  Solving for Uy, Initial residual = 0.0571461, Final residual = 0.0050462, No Iterations 10
smoothSolver:  Solving for Uz, Initial residual = 0.0474924, Final residual = 0.00418164, No Iterations 10
GAMG:  Solving for p, Initial residual = 0.0228967, Final residual = 0.000177924, No Iterations 4
time step continuity errors : sum local = 0.000290656, global = -1.65914e-06, cumulative = -9.78348e-05
smoothSolver:  Solving for omega, Initial residual = 0.00034082, Final residual = 3.32852e-05, No Iterations 3
smoothSolver:  Solving for k, Initial residual = 0.00465778, Final residual = 0.000287066, No Iterations 4
ExecutionTime = 4.45 s  ClockTime = 6 s

forceCoeffs forceCoeffs1 write:
    Cm    = 0.158082
    Cd    = 0.396193
    Cl    = 0.0591016
    Cl(f) = 0.187633
    Cl(r) = -0.128532

Time = 42

smoothSolver:  Solving for Ux, Initial residual = 0.00257371, Final residual = 0.000242507, No Iterations 10
smoothSolver:  Solving for Uy, Initial residual = 0.0554722, Final residual = 0.00492767, No Iterations 10
smoothSolver:  Solving for Uz, Initial residual = 0.0455525, Final residual = 0.00401947, No Iterations 10
GAMG:  Solving for p, Initial residual = 0.0224042, Final residual = 0.000177738, No Iterations 4
time step continuity errors : sum local = 0.000288619, global = -2.30687e-06, cumulative = -0.000100142
smoothSolver:  Solving for omega, Initial residual = 0.000334702, Final residual = 3.27293e-05, No Iterations 3
smoothSolver:  Solving for k, Initial residual = 0.00463424, Final residual = 0.000287098, No Iterations 4
ExecutionTime = 4.52 s  ClockTime = 6 s

forceCoeffs forceCoeffs1 write:
    Cm    = 0.158173
    Cd    = 0.396661
    Cl    = 0.0608472
    Cl(f) = 0.188597
    Cl(r) = -0.12775

Time = 43

smoothSolver:  Solving for Ux, Initial residual = 0.0025554, Final residual = 0.000239066, No Iterations 10
smoothSolver:  Solving for Uy, Initial residual = 0.0543908, Final residual = 0.0048258, No Iterations 10
smoothSolver:  Solving for Uz, Initial residual = 0.0446479, Final residual = 0.00386095, No Iterations 10
GAMG:  Solving for p, Initial residual = 0.021968, Final residual = 0.00017816, No Iterations 4
time step continuity errors : sum local = 0.000287975, global = -1.58487e-06, cumulative = -0.000101727
smoothSolver:  Solving for omega, Initial residual = 0.000334249, Final residual = 3.20122e-05, No Iterations 3
smoothSolver:  Solving for k, Initial residual = 0.00463306, Final residual = 0.000283958, No Iterations 4
ExecutionTime = 4.59 s  ClockTime = 6 s

forceCoeffs forceCoeffs1 write:
    Cm    = 0.156263
    Cd    = 0.391865
    Cl    = 0.0611154
    Cl(f) = 0.186821
    Cl(r) = -0.125705

Time = 44

smoothSolver:  Solving for Ux, Initial residual = 0.00248113, Final residual = 0.000235783, No Iterations 10
smoothSolver:  Solving for Uy, Initial residual = 0.0533636, Final residual = 0.0047202, No Iterations 10
smoothSolver:  Solving for Uz, Initial residual = 0.0427852, Final residual = 0.00372362, No Iterations 10
GAMG:  Solving for p, Initial residual = 0.0215501, Final residual = 0.000180564, No Iterations 4
time step continuity errors : sum local = 0.000291254, global = -2.10539e-07, cumulative = -0.000101937
smoothSolver:  Solving for omega, Initial residual = 0.000353526, Final residual = 3.23572e-05, No Iterations 3
smoothSolver:  Solving for k, Initial residual = 0.00473158, Final residual = 0.000284403, No Iterations 4
ExecutionTime = 4.65 s  ClockTime = 6 s

forceCoeffs forceCoeffs1 write:
    Cm    = 0.156593
    Cd    = 0.394448
    Cl    = 0.0643042
    Cl(f) = 0.188745
    Cl(r) = -0.124441

Time = 45

smoothSolver:  Solving for Ux, Initial residual = 0.00246496, Final residual = 0.000231604, No Iterations 10
smoothSolver:  Solving for Uy, Initial residual = 0.0534878, Final residual = 0.00465199, No Iterations 10
smoothSolver:  Solving for Uz, Initial residual = 0.0417663, Final residual = 0.0035884, No Iterations 10
GAMG:  Solving for p, Initial residual = 0.021057, Final residual = 0.000172458, No Iterations 4
time step continuity errors : sum local = 0.00027747, global = -3.66101e-07, cumulative = -0.000102303
smoothSolver:  Solving for omega, Initial residual = 0.000324531, Final residual = 3.06484e-05, No Iterations 3
smoothSolver:  Solving for k, Initial residual = 0.00446134, Final residual = 0.00027479, No Iterations 4
ExecutionTime = 4.72 s  ClockTime = 6 s

forceCoeffs forceCoeffs1 write:
    Cm    = 0.155352
    Cd    = 0.392774
    Cl    = 0.0655272
    Cl(f) = 0.188116
    Cl(r) = -0.122589

Time = 46

smoothSolver:  Solving for Ux, Initial residual = 0.00238458, Final residual = 0.000225396, No Iterations 10
smoothSolver:  Solving for Uy, Initial residual = 0.0524372, Final residual = 0.0045638, No Iterations 10
smoothSolver:  Solving for Uz, Initial residual = 0.0402037, Final residual = 0.00346227, No Iterations 10
GAMG:  Solving for p, Initial residual = 0.0206029, Final residual = 0.000161305, No Iterations 4
time step continuity errors : sum local = 0.00025931, global = -6.89238e-07, cumulative = -0.000102992
smoothSolver:  Solving for omega, Initial residual = 0.00030187, Final residual = 2.98562e-05, No Iterations 3
smoothSolver:  Solving for k, Initial residual = 0.00430505, Final residual = 0.000270591, No Iterations 4
ExecutionTime = 4.78 s  ClockTime = 6 s

forceCoeffs forceCoeffs1 write:
    Cm    = 0.153775
    Cd    = 0.391069
    Cl    = 0.067728
    Cl(f) = 0.187639
    Cl(r) = -0.119911

Time = 47

smoothSolver:  Solving for Ux, Initial residual = 0.0023339, Final residual = 0.000220246, No Iterations 10
smoothSolver:  Solving for Uy, Initial residual = 0.0510778, Final residual = 0.00442368, No Iterations 10
smoothSolver:  Solving for Uz, Initial residual = 0.0390136, Final residual = 0.00335975, No Iterations 10
GAMG:  Solving for p, Initial residual = 0.020039, Final residual = 0.000152254, No Iterations 4
time step continuity errors : sum local = 0.00024451, global = -1.37256e-06, cumulative = -0.000104365
smoothSolver:  Solving for omega, Initial residual = 0.000291543, Final residual = 2.90904e-05, No Iterations 3
smoothSolver:  Solving for k, Initial residual = 0.0042083, Final residual = 0.000265492, No Iterations 4
ExecutionTime = 4.85 s  ClockTime = 6 s

forceCoeffs forceCoeffs1 write:
    Cm    = 0.15283
    Cd    = 0.391017
    Cl    = 0.0700462
    Cl(f) = 0.187853
    Cl(r) = -0.117807

Time = 48

smoothSolver:  Solving for Ux, Initial residual = 0.00228324, Final residual = 0.000215842, No Iterations 10
smoothSolver:  Solving for Uy, Initial residual = 0.0496125, Final residual = 0.00427458, No Iterations 10
smoothSolver:  Solving for Uz, Initial residual = 0.0380497, Final residual = 0.00329577, No Iterations 10
GAMG:  Solving for p, Initial residual = 0.0195024, Final residual = 0.000151292, No Iterations 4
time step continuity errors : sum local = 0.000242744, global = -2.60163e-06, cumulative = -0.000106967
smoothSolver:  Solving for omega, Initial residual = 0.000284784, Final residual = 2.84332e-05, No Iterations 3
smoothSolver:  Solving for k, Initial residual = 0.00411664, Final residual = 0.000260224, No Iterations 4
ExecutionTime = 4.91 s  ClockTime = 6 s

forceCoeffs forceCoeffs1 write:
    Cm    = 0.152932
    Cd    = 0.3934
    Cl    = 0.0733726
    Cl(f) = 0.189618
    Cl(r) = -0.116246

Time = 49

smoothSolver:  Solving for Ux, Initial residual = 0.00224588, Final residual = 0.000211566, No Iterations 10
smoothSolver:  Solving for Uy, Initial residual = 0.0484159, Final residual = 0.00414633, No Iterations 10
smoothSolver:  Solving for Uz, Initial residual = 0.0374395, Final residual = 0.0032465, No Iterations 10
GAMG:  Solving for p, Initial residual = 0.0190105, Final residual = 0.000154605, No Iterations 4
time step continuity errors : sum local = 0.000247492, global = -2.41125e-06, cumulative = -0.000109378
smoothSolver:  Solving for omega, Initial residual = 0.000293947, Final residual = 2.76954e-05, No Iterations 3
smoothSolver:  Solving for k, Initial residual = 0.00416351, Final residual = 0.000253266, No Iterations 4
ExecutionTime = 4.98 s  ClockTime = 6 s

forceCoeffs forceCoeffs1 write:
    Cm    = 0.152635
    Cd    = 0.393485
    Cl    = 0.0746489
    Cl(f) = 0.18996
    Cl(r) = -0.115311

Time = 50

smoothSolver:  Solving for Ux, Initial residual = 0.00220105, Final residual = 0.000206464, No Iterations 10
smoothSolver:  Solving for Uy, Initial residual = 0.0472865, Final residual = 0.00402131, No Iterations 10
smoothSolver:  Solving for Uz, Initial residual = 0.0369571, Final residual = 0.00320468, No Iterations 10
GAMG:  Solving for p, Initial residual = 0.0186932, Final residual = 0.000161391, No Iterations 4
time step continuity errors : sum local = 0.000257566, global = -2.17165e-06, cumulative = -0.00011155
smoothSolver:  Solving for omega, Initial residual = 0.000320515, Final residual = 2.74767e-05, No Iterations 3
smoothSolver:  Solving for k, Initial residual = 0.00409938, Final residual = 0.000245962, No Iterations 4
ExecutionTime = 5.04 s  ClockTime = 6 s

forceCoeffs forceCoeffs1 write:
    Cm    = 0.154507
    Cd    = 0.399226
    Cl    = 0.0783327
    Cl(f) = 0.193673
    Cl(r) = -0.11534

Time = 51

smoothSolver:  Solving for Ux, Initial residual = 0.00216331, Final residual = 0.000201262, No Iterations 10
smoothSolver:  Solving for Uy, Initial residual = 0.0462685, Final residual = 0.00388488, No Iterations 10
smoothSolver:  Solving for Uz, Initial residual = 0.0369991, Final residual = 0.00315705, No Iterations 10
GAMG:  Solving for p, Initial residual = 0.0182637, Final residual = 0.000160369, No Iterations 4
time step continuity errors : sum local = 0.000254539, global = -1.7964e-06, cumulative = -0.000113346
smoothSolver:  Solving for omega, Initial residual = 0.00030276, Final residual = 2.61447e-05, No Iterations 3
smoothSolver:  Solving for k, Initial residual = 0.00389511, Final residual = 0.000236873, No Iterations 4
ExecutionTime = 5.11 s  ClockTime = 6 s

forceCoeffs forceCoeffs1 write:
    Cm    = 0.154179
    Cd    = 0.398198
    Cl    = 0.0778115
    Cl(f) = 0.193084
    Cl(r) = -0.115273

Time = 52

smoothSolver:  Solving for Ux, Initial residual = 0.00208404, Final residual = 0.00019598, No Iterations 10
smoothSolver:  Solving for Uy, Initial residual = 0.0444804, Final residual = 0.00374724, No Iterations 10
smoothSolver:  Solving for Uz, Initial residual = 0.0364394, Final residual = 0.00312663, No Iterations 10
GAMG:  Solving for p, Initial residual = 0.0178913, Final residual = 0.000142229, No Iterations 4
time step continuity errors : sum local = 0.000224576, global = -1.22021e-06, cumulative = -0.000114566
smoothSolver:  Solving for omega, Initial residual = 0.000263808, Final residual = 2.53359e-05, No Iterations 3
smoothSolver:  Solving for k, Initial residual = 0.00371376, Final residual = 0.000229723, No Iterations 4
ExecutionTime = 5.18 s  ClockTime = 6 s

forceCoeffs forceCoeffs1 write:
    Cm    = 0.155209
    Cd    = 0.40138
    Cl    = 0.0803545
    Cl(f) = 0.195387
    Cl(r) = -0.115032

Time = 53

smoothSolver:  Solving for Ux, Initial residual = 0.0020168, Final residual = 0.000190745, No Iterations 10
smoothSolver:  Solving for Uy, Initial residual = 0.0426838, Final residual = 0.00361813, No Iterations 10
smoothSolver:  Solving for Uz, Initial residual = 0.0359137, Final residual = 0.00309501, No Iterations 10
GAMG:  Solving for p, Initial residual = 0.0174675, Final residual = 0.000130074, No Iterations 4
time step continuity errors : sum local = 0.000204277, global = -1.07696e-06, cumulative = -0.000115643
smoothSolver:  Solving for omega, Initial residual = 0.000248335, Final residual = 2.43345e-05, No Iterations 3
smoothSolver:  Solving for k, Initial residual = 0.00356448, Final residual = 0.000222852, No Iterations 4
ExecutionTime = 5.25 s  ClockTime = 6 s

forceCoeffs forceCoeffs1 write:
    Cm    = 0.15545
    Cd    = 0.402001
    Cl    = 0.0811977
    Cl(f) = 0.196049
    Cl(r) = -0.114851

Time = 54

smoothSolver:  Solving for Ux, Initial residual = 0.00194498, Final residual = 0.000185702, No Iterations 10
smoothSolver:  Solving for Uy, Initial residual = 0.0410276, Final residual = 0.00350039, No Iterations 10
smoothSolver:  Solving for Uz, Initial residual = 0.0350609, Final residual = 0.00304083, No Iterations 10
GAMG:  Solving for p, Initial residual = 0.0170486, Final residual = 0.000124573, No Iterations 4
time step continuity errors : sum local = 0.000194783, global = -6.95965e-07, cumulative = -0.000116339
smoothSolver:  Solving for omega, Initial residual = 0.000239318, Final residual = 2.35028e-05, No Iterations 3
bounding omega, min: -3.88048 max: 543090 average: 919.766
smoothSolver:  Solving for k, Initial residual = 0.00344678, Final residual = 0.000216905, No Iterations 4
ExecutionTime = 5.32 s  ClockTime = 7 s

forceCoeffs forceCoeffs1 write:
    Cm    = 0.155582
    Cd    = 0.402105
    Cl    = 0.0816212
    Cl(f) = 0.196392
    Cl(r) = -0.114771

Time = 55

smoothSolver:  Solving for Ux, Initial residual = 0.00188979, Final residual = 0.000181193, No Iterations 10
smoothSolver:  Solving for Uy, Initial residual = 0.0397039, Final residual = 0.00339531, No Iterations 10
smoothSolver:  Solving for Uz, Initial residual = 0.0341572, Final residual = 0.00296409, No Iterations 10
GAMG:  Solving for p, Initial residual = 0.0166118, Final residual = 0.000123459, No Iterations 4
time step continuity errors : sum local = 0.000192461, global = 2.03989e-07, cumulative = -0.000116135
smoothSolver:  Solving for omega, Initial residual = 0.000236882, Final residual = 2.27298e-05, No Iterations 3
smoothSolver:  Solving for k, Initial residual = 0.00336208, Final residual = 0.00021101, No Iterations 4
ExecutionTime = 5.39 s  ClockTime = 7 s

forceCoeffs forceCoeffs1 write:
    Cm    = 0.155483
    Cd    = 0.401867
    Cl    = 0.0818535
    Cl(f) = 0.19641
    Cl(r) = -0.114556

Time = 56

smoothSolver:  Solving for Ux, Initial residual = 0.0018436, Final residual = 0.000176212, No Iterations 10
smoothSolver:  Solving for Uy, Initial residual = 0.0385283, Final residual = 0.00330592, No Iterations 10
smoothSolver:  Solving for Uz, Initial residual = 0.0331654, Final residual = 0.00288203, No Iterations 10
GAMG:  Solving for p, Initial residual = 0.0161659, Final residual = 0.000124005, No Iterations 4
time step continuity errors : sum local = 0.000192792, global = 8.47027e-07, cumulative = -0.000115288
smoothSolver:  Solving for omega, Initial residual = 0.000237666, Final residual = 2.21513e-05, No Iterations 3
smoothSolver:  Solving for k, Initial residual = 0.00326121, Final residual = 0.000204321, No Iterations 4
ExecutionTime = 5.45 s  ClockTime = 7 s

forceCoeffs forceCoeffs1 write:
    Cm    = 0.154453
    Cd    = 0.39978
    Cl    = 0.0813377
    Cl(f) = 0.195122
    Cl(r) = -0.113784

Time = 57

smoothSolver:  Solving for Ux, Initial residual = 0.00179685, Final residual = 0.000170579, No Iterations 10
smoothSolver:  Solving for Uy, Initial residual = 0.0374472, Final residual = 0.00322222, No Iterations 10
smoothSolver:  Solving for Uz, Initial residual = 0.0322356, Final residual = 0.00281449, No Iterations 10
GAMG:  Solving for p, Initial residual = 0.015714, Final residual = 0.000123768, No Iterations 4
time step continuity errors : sum local = 0.000192051, global = 1.09997e-06, cumulative = -0.000114188
smoothSolver:  Solving for omega, Initial residual = 0.000248402, Final residual = 2.1854e-05, No Iterations 3
smoothSolver:  Solving for k, Initial residual = 0.0032329, Final residual = 0.000198611, No Iterations 4
ExecutionTime = 5.51 s  ClockTime = 7 s

forceCoeffs forceCoeffs1 write:
    Cm    = 0.154238
    Cd    = 0.400705
    Cl    = 0.0815451
    Cl(f) = 0.19501
    Cl(r) = -0.113465

Time = 58

smoothSolver:  Solving for Ux, Initial residual = 0.00175228, Final residual = 0.000165369, No Iterations 10
smoothSolver:  Solving for Uy, Initial residual = 0.0366678, Final residual = 0.00313936, No Iterations 10
smoothSolver:  Solving for Uz, Initial residual = 0.0315074, Final residual = 0.00274905, No Iterations 10
GAMG:  Solving for p, Initial residual = 0.015211, Final residual = 0.000121104, No Iterations 4
time step continuity errors : sum local = 0.000187581, global = 6.61547e-07, cumulative = -0.000113527
smoothSolver:  Solving for omega, Initial residual = 0.000231309, Final residual = 2.10793e-05, No Iterations 3
smoothSolver:  Solving for k, Initial residual = 0.00307802, Final residual = 0.000191364, No Iterations 4
ExecutionTime = 5.58 s  ClockTime = 7 s

forceCoeffs forceCoeffs1 write:
    Cm    = 0.152915
    Cd    = 0.39864
    Cl    = 0.0804662
    Cl(f) = 0.193148
    Cl(r) = -0.112682

Time = 59

smoothSolver:  Solving for Ux, Initial residual = 0.00168616, Final residual = 0.00016053, No Iterations 10
smoothSolver:  Solving for Uy, Initial residual = 0.0356721, Final residual = 0.00304927, No Iterations 10
smoothSolver:  Solving for Uz, Initial residual = 0.0305567, Final residual = 0.00267528, No Iterations 10
GAMG:  Solving for p, Initial residual = 0.0147913, Final residual = 0.000113351, No Iterations 4
time step continuity errors : sum local = 0.000175305, global = 5.16729e-08, cumulative = -0.000113475
smoothSolver:  Solving for omega, Initial residual = 0.000215004, Final residual = 2.05053e-05, No Iterations 3
smoothSolver:  Solving for k, Initial residual = 0.00294486, Final residual = 0.00018544, No Iterations 4
ExecutionTime = 5.63 s  ClockTime = 7 s

forceCoeffs forceCoeffs1 write:
    Cm    = 0.152677
    Cd    = 0.399269
    Cl    = 0.0812456
    Cl(f) = 0.1933
    Cl(r) = -0.112055

Time = 60

smoothSolver:  Solving for Ux, Initial residual = 0.00163309, Final residual = 0.000155794, No Iterations 10
smoothSolver:  Solving for Uy, Initial residual = 0.0348288, Final residual = 0.00294767, No Iterations 10
smoothSolver:  Solving for Uz, Initial residual = 0.029712, Final residual = 0.00258755, No Iterations 10
GAMG:  Solving for p, Initial residual = 0.0144364, Final residual = 0.000109664, No Iterations 4
time step continuity errors : sum local = 0.000169219, global = -4.59872e-07, cumulative = -0.000113935
smoothSolver:  Solving for omega, Initial residual = 0.000206824, Final residual = 1.99699e-05, No Iterations 3
smoothSolver:  Solving for k, Initial residual = 0.00283637, Final residual = 0.00017969, No Iterations 4
ExecutionTime = 5.71 s  ClockTime = 7 s

forceCoeffs forceCoeffs1 write:
    Cm    = 0.152468
    Cd    = 0.399356
    Cl    = 0.0818945
    Cl(f) = 0.193415
    Cl(r) = -0.111521

Time = 61

smoothSolver:  Solving for Ux, Initial residual = 0.00157967, Final residual = 0.00015086, No Iterations 10
smoothSolver:  Solving for Uy, Initial residual = 0.0339332, Final residual = 0.00285613, No Iterations 10
smoothSolver:  Solving for Uz, Initial residual = 0.0288746, Final residual = 0.00248952, No Iterations 10
GAMG:  Solving for p, Initial residual = 0.014208, Final residual = 0.000107181, No Iterations 4
time step continuity errors : sum local = 0.000164927, global = -3.88094e-07, cumulative = -0.000114323
smoothSolver:  Solving for omega, Initial residual = 0.000199926, Final residual = 1.94566e-05, No Iterations 3
bounding omega, min: -1.75525 max: 543090 average: 927.345
smoothSolver:  Solving for k, Initial residual = 0.00273843, Final residual = 0.000173871, No Iterations 4
ExecutionTime = 5.78 s  ClockTime = 7 s

forceCoeffs forceCoeffs1 write:
    Cm    = 0.15272
    Cd    = 0.39994
    Cl    = 0.0824817
    Cl(f) = 0.193961
    Cl(r) = -0.111479

Time = 62

smoothSolver:  Solving for Ux, Initial residual = 0.0015281, Final residual = 0.00014613, No Iterations 10
smoothSolver:  Solving for Uy, Initial residual = 0.0331231, Final residual = 0.00277914, No Iterations 10
smoothSolver:  Solving for Uz, Initial residual = 0.028069, Final residual = 0.00240498, No Iterations 10
GAMG:  Solving for p, Initial residual = 0.0140706, Final residual = 0.000104903, No Iterations 4
time step continuity errors : sum local = 0.000160908, global = -2.68437e-07, cumulative = -0.000114591
smoothSolver:  Solving for omega, Initial residual = 0.000195465, Final residual = 1.89703e-05, No Iterations 3
bounding omega, min: -66.8676 max: 543090 average: 928.509
smoothSolver:  Solving for k, Initial residual = 0.00265517, Final residual = 0.000168311, No Iterations 4
ExecutionTime = 5.84 s  ClockTime = 7 s

forceCoeffs forceCoeffs1 write:
    Cm    = 0.153011
    Cd    = 0.40041
    Cl    = 0.0830808
    Cl(f) = 0.194551
    Cl(r) = -0.11147

Time = 63

smoothSolver:  Solving for Ux, Initial residual = 0.00147718, Final residual = 0.000141547, No Iterations 10
smoothSolver:  Solving for Uy, Initial residual = 0.0323315, Final residual = 0.00271001, No Iterations 10
smoothSolver:  Solving for Uz, Initial residual = 0.0272763, Final residual = 0.0023287, No Iterations 10
GAMG:  Solving for p, Initial residual = 0.0139668, Final residual = 0.000104815, No Iterations 4
time step continuity errors : sum local = 0.000160302, global = 1.14904e-07, cumulative = -0.000114476
smoothSolver:  Solving for omega, Initial residual = 0.000190856, Final residual = 1.84499e-05, No Iterations 3
bounding omega, min: -87.4324 max: 543090 average: 928.711
smoothSolver:  Solving for k, Initial residual = 0.00258188, Final residual = 0.000163398, No Iterations 4
ExecutionTime = 5.9 s  ClockTime = 7 s

forceCoeffs forceCoeffs1 write:
    Cm    = 0.153378
    Cd    = 0.401103
    Cl    = 0.0834065
    Cl(f) = 0.195081
    Cl(r) = -0.111674

Time = 64

smoothSolver:  Solving for Ux, Initial residual = 0.00142902, Final residual = 0.000136712, No Iterations 10
smoothSolver:  Solving for Uy, Initial residual = 0.0314337, Final residual = 0.00263539, No Iterations 10
smoothSolver:  Solving for Uz, Initial residual = 0.0264509, Final residual = 0.00224854, No Iterations 10
GAMG:  Solving for p, Initial residual = 0.0138538, Final residual = 0.000105371, No Iterations 4
time step continuity errors : sum local = 0.000160673, global = 7.42139e-07, cumulative = -0.000113734
smoothSolver:  Solving for omega, Initial residual = 0.000187056, Final residual = 1.80293e-05, No Iterations 3
bounding omega, min: -149.417 max: 543090 average: 929.807
smoothSolver:  Solving for k, Initial residual = 0.00251588, Final residual = 0.000159252, No Iterations 4
ExecutionTime = 5.97 s  ClockTime = 7 s

forceCoeffs forceCoeffs1 write:
    Cm    = 0.153583
    Cd    = 0.401636
    Cl    = 0.0832696
    Cl(f) = 0.195218
    Cl(r) = -0.111949

Time = 65

smoothSolver:  Solving for Ux, Initial residual = 0.00138062, Final residual = 0.000131847, No Iterations 10
smoothSolver:  Solving for Uy, Initial residual = 0.0304754, Final residual = 0.00255633, No Iterations 10
smoothSolver:  Solving for Uz, Initial residual = 0.0256171, Final residual = 0.00216418, No Iterations 10
GAMG:  Solving for p, Initial residual = 0.0137173, Final residual = 0.000102641, No Iterations 4
time step continuity errors : sum local = 0.000156161, global = 1.63361e-06, cumulative = -0.000112101
smoothSolver:  Solving for omega, Initial residual = 0.000183232, Final residual = 1.76478e-05, No Iterations 3
bounding omega, min: -101.58 max: 543090 average: 930.266
smoothSolver:  Solving for k, Initial residual = 0.00245546, Final residual = 0.000155762, No Iterations 4
ExecutionTime = 6.04 s  ClockTime = 7 s

forceCoeffs forceCoeffs1 write:
    Cm    = 0.153805
    Cd    = 0.402278
    Cl    = 0.0828411
    Cl(f) = 0.195225
    Cl(r) = -0.112384

Time = 66

smoothSolver:  Solving for Ux, Initial residual = 0.00133785, Final residual = 0.000127204, No Iterations 10
smoothSolver:  Solving for Uy, Initial residual = 0.0295218, Final residual = 0.00247494, No Iterations 10
smoothSolver:  Solving for Uz, Initial residual = 0.0248734, Final residual = 0.00208007, No Iterations 10
GAMG:  Solving for p, Initial residual = 0.0135151, Final residual = 9.7519e-05, No Iterations 4
time step continuity errors : sum local = 0.00014819, global = 1.53118e-06, cumulative = -0.000110569
smoothSolver:  Solving for omega, Initial residual = 0.000179394, Final residual = 1.7298e-05, No Iterations 3
bounding omega, min: -5.47734 max: 543090 average: 930.653
smoothSolver:  Solving for k, Initial residual = 0.00240582, Final residual = 0.000152735, No Iterations 4
ExecutionTime = 6.11 s  ClockTime = 7 s

forceCoeffs forceCoeffs1 write:
    Cm    = 0.153962
    Cd    = 0.402747
    Cl    = 0.0823296
    Cl(f) = 0.195127
    Cl(r) = -0.112797

Time = 67

smoothSolver:  Solving for Ux, Initial residual = 0.00129722, Final residual = 0.00012335, No Iterations 10
smoothSolver:  Solving for Uy, Initial residual = 0.028707, Final residual = 0.00240507, No Iterations 10
smoothSolver:  Solving for Uz, Initial residual = 0.0242494, Final residual = 0.00200757, No Iterations 10
GAMG:  Solving for p, Initial residual = 0.0132393, Final residual = 9.18328e-05, No Iterations 4
time step continuity errors : sum local = 0.000139553, global = 1.34378e-06, cumulative = -0.000109226
smoothSolver:  Solving for omega, Initial residual = 0.000176986, Final residual = 1.69526e-05, No Iterations 3
smoothSolver:  Solving for k, Initial residual = 0.00237433, Final residual = 0.000150483, No Iterations 4
[...]
smoothSolver:  Solving for k, Initial residual = 0.00223329, Final residual = 0.00014067, No Iterations 4
ExecutionTime = 6.96 s  ClockTime = 8 s

forceCoeffs forceCoeffs1 write:
    Cm    = 0.154924
    Cd    = 0.401006
    Cl    = 0.0747969
    Cl(f) = 0.192322
    Cl(r) = -0.117526

Time = 80

smoothSolver:  Solving for Ux, Initial residual = 0.000991215, Final residual = 8.42541e-05, No Iterations 10
smoothSolver:  Solving for Uy, Initial residual = 0.0232279, Final residual = 0.00217466, No Iterations 9
smoothSolver:  Solving for Uz, Initial residual = 0.0214152, Final residual = 0.00205019, No Iterations 9
GAMG:  Solving for p, Initial residual = 0.0113007, Final residual = 8.40194e-05, No Iterations 4
time step continuity errors : sum local = 0.000126672, global = 2.87602e-07, cumulative = -0.000104955
smoothSolver:  Solving for omega, Initial residual = 0.000157303, Final residual = 1.48322e-05, No Iterations 3
smoothSolver:  Solving for k, Initial residual = 0.00221415, Final residual = 0.000139982, No Iterations 4
ExecutionTime = 7.01 s  ClockTime = 8 s

forceCoeffs forceCoeffs1 write:
    Cm    = 0.155021
    Cd    = 0.401209
    Cl    = 0.0749216
    Cl(f) = 0.192482
    Cl(r) = -0.11756

Time = 81

smoothSolver:  Solving for Ux, Initial residual = 0.000973281, Final residual = 8.27323e-05, No Iterations 10
smoothSolver:  Solving for Uy, Initial residual = 0.0230253, Final residual = 0.0021545, No Iterations 9
smoothSolver:  Solving for Uz, Initial residual = 0.0212426, Final residual = 0.00200986, No Iterations 9
GAMG:  Solving for p, Initial residual = 0.0112561, Final residual = 8.21632e-05, No Iterations 4
time step continuity errors : sum local = 0.000123839, global = 6.98847e-07, cumulative = -0.000104257
smoothSolver:  Solving for omega, Initial residual = 0.000155269, Final residual = 1.46079e-05, No Iterations 3
smoothSolver:  Solving for k, Initial residual = 0.00218725, Final residual = 0.00013924, No Iterations 4
ExecutionTime = 7.08 s  ClockTime = 8 s

forceCoeffs forceCoeffs1 write:
    Cm    = 0.155234
    Cd    = 0.401794
    Cl    = 0.0749271
    Cl(f) = 0.192697
    Cl(r) = -0.11777

Time = 82

smoothSolver:  Solving for Ux, Initial residual = 0.000955809, Final residual = 8.1542e-05, No Iterations 10
smoothSolver:  Solving for Uy, Initial residual = 0.0228892, Final residual = 0.00214533, No Iterations 9
smoothSolver:  Solving for Uz, Initial residual = 0.0208983, Final residual = 0.00196702, No Iterations 9
GAMG:  Solving for p, Initial residual = 0.0112271, Final residual = 7.93165e-05, No Iterations 4
time step continuity errors : sum local = 0.000119512, global = 1.0153e-06, cumulative = -0.000103241
smoothSolver:  Solving for omega, Initial residual = 0.000153252, Final residual = 1.44217e-05, No Iterations 3
smoothSolver:  Solving for k, Initial residual = 0.00215613, Final residual = 0.000138427, No Iterations 4
ExecutionTime = 7.13 s  ClockTime = 8 s

forceCoeffs forceCoeffs1 write:
    Cm    = 0.155566
    Cd    = 0.402696
    Cl    = 0.0748404
    Cl(f) = 0.192986
    Cl(r) = -0.118146

Time = 83

smoothSolver:  Solving for Ux, Initial residual = 0.000941957, Final residual = 8.0814e-05, No Iterations 10
smoothSolver:  Solving for Uy, Initial residual = 0.0227352, Final residual = 0.00214554, No Iterations 9
smoothSolver:  Solving for Uz, Initial residual = 0.0204418, Final residual = 0.00192607, No Iterations 9
GAMG:  Solving for p, Initial residual = 0.0111275, Final residual = 7.67113e-05, No Iterations 4
time step continuity errors : sum local = 0.000115539, global = 7.48486e-07, cumulative = -0.000102493
smoothSolver:  Solving for omega, Initial residual = 0.000151365, Final residual = 1.42446e-05, No Iterations 3
smoothSolver:  Solving for k, Initial residual = 0.00211933, Final residual = 0.000137084, No Iterations 4
ExecutionTime = 7.19 s  ClockTime = 8 s

forceCoeffs forceCoeffs1 write:
    Cm    = 0.156053
    Cd    = 0.403945
    Cl    = 0.0745202
    Cl(f) = 0.193314
    Cl(r) = -0.118793

Time = 84

smoothSolver:  Solving for Ux, Initial residual = 0.000930817, Final residual = 8.05904e-05, No Iterations 10
smoothSolver:  Solving for Uy, Initial residual = 0.0225653, Final residual = 0.00215815, No Iterations 9
smoothSolver:  Solving for Uz, Initial residual = 0.0199267, Final residual = 0.00189178, No Iterations 9
GAMG:  Solving for p, Initial residual = 0.0109542, Final residual = 7.58798e-05, No Iterations 4
time step continuity errors : sum local = 0.000114252, global = 6.43122e-07, cumulative = -0.00010185
smoothSolver:  Solving for omega, Initial residual = 0.000150015, Final residual = 1.40435e-05, No Iterations 3
smoothSolver:  Solving for k, Initial residual = 0.00208439, Final residual = 0.000134983, No Iterations 4
ExecutionTime = 7.25 s  ClockTime = 9 s

forceCoeffs forceCoeffs1 write:
    Cm    = 0.156602
    Cd    = 0.405231
    Cl    = 0.0741534
    Cl(f) = 0.193678
    Cl(r) = -0.119525

Time = 85

smoothSolver:  Solving for Ux, Initial residual = 0.000922267, Final residual = 8.06247e-05, No Iterations 10
smoothSolver:  Solving for Uy, Initial residual = 0.0224111, Final residual = 0.00218078, No Iterations 9
smoothSolver:  Solving for Uz, Initial residual = 0.0195083, Final residual = 0.00186684, No Iterations 9
GAMG:  Solving for p, Initial residual = 0.0107595, Final residual = 7.62755e-05, No Iterations 4
time step continuity errors : sum local = 0.000114823, global = 9.85183e-07, cumulative = -0.000100864
smoothSolver:  Solving for omega, Initial residual = 0.000148649, Final residual = 1.38263e-05, No Iterations 3
smoothSolver:  Solving for k, Initial residual = 0.00205192, Final residual = 0.000132526, No Iterations 4
ExecutionTime = 7.31 s  ClockTime = 9 s

forceCoeffs forceCoeffs1 write:
    Cm    = 0.157102
    Cd    = 0.406361
    Cl    = 0.0737464
    Cl(f) = 0.193975
    Cl(r) = -0.120228

Time = 86

smoothSolver:  Solving for Ux, Initial residual = 0.000918179, Final residual = 8.09907e-05, No Iterations 10
smoothSolver:  Solving for Uy, Initial residual = 0.0223573, Final residual = 0.00220054, No Iterations 9
smoothSolver:  Solving for Uz, Initial residual = 0.0192853, Final residual = 0.00185102, No Iterations 9
GAMG:  Solving for p, Initial residual = 0.0105701, Final residual = 7.73358e-05, No Iterations 4
time step continuity errors : sum local = 0.000116384, global = 8.5772e-07, cumulative = -0.000100007
smoothSolver:  Solving for omega, Initial residual = 0.000147226, Final residual = 1.36178e-05, No Iterations 3
smoothSolver:  Solving for k, Initial residual = 0.00202128, Final residual = 0.000130037, No Iterations 4
ExecutionTime = 7.38 s  ClockTime = 9 s

forceCoeffs forceCoeffs1 write:
    Cm    = 0.157569
    Cd    = 0.407227
    Cl    = 0.0736407
    Cl(f) = 0.19439
    Cl(r) = -0.120749

Time = 87

smoothSolver:  Solving for Ux, Initial residual = 0.000918416, Final residual = 8.14505e-05, No Iterations 10
smoothSolver:  Solving for Uy, Initial residual = 0.0223281, Final residual = 0.00220442, No Iterations 9
smoothSolver:  Solving for Uz, Initial residual = 0.0191699, Final residual = 0.00183973, No Iterations 9
GAMG:  Solving for p, Initial residual = 0.0104038, Final residual = 7.77654e-05, No Iterations 4
time step continuity errors : sum local = 0.000116972, global = 1.30113e-07, cumulative = -9.98767e-05
smoothSolver:  Solving for omega, Initial residual = 0.000146716, Final residual = 1.34655e-05, No Iterations 3
smoothSolver:  Solving for k, Initial residual = 0.00199992, Final residual = 0.000128331, No Iterations 4
ExecutionTime = 7.43 s  ClockTime = 9 s

forceCoeffs forceCoeffs1 write:
    Cm    = 0.158065
    Cd    = 0.40788
    Cl    = 0.0738404
    Cl(f) = 0.194985
    Cl(r) = -0.121145

Time = 88

smoothSolver:  Solving for Ux, Initial residual = 0.000918818, Final residual = 8.15847e-05, No Iterations 10
smoothSolver:  Solving for Uy, Initial residual = 0.0223273, Final residual = 0.00219635, No Iterations 9
smoothSolver:  Solving for Uz, Initial residual = 0.0190192, Final residual = 0.00182542, No Iterations 9
GAMG:  Solving for p, Initial residual = 0.0102546, Final residual = 7.7448e-05, No Iterations 4
time step continuity errors : sum local = 0.000116355, global = -7.34609e-07, cumulative = -0.000100611
smoothSolver:  Solving for omega, Initial residual = 0.000145872, Final residual = 1.34038e-05, No Iterations 3
smoothSolver:  Solving for k, Initial residual = 0.00198435, Final residual = 0.000127291, No Iterations 4
ExecutionTime = 7.49 s  ClockTime = 9 s

forceCoeffs forceCoeffs1 write:
    Cm    = 0.158573
    Cd    = 0.408306
    Cl    = 0.0742486
    Cl(f) = 0.195697
    Cl(r) = -0.121449

Time = 89

smoothSolver:  Solving for Ux, Initial residual = 0.000917109, Final residual = 8.12793e-05, No Iterations 10
smoothSolver:  Solving for Uy, Initial residual = 0.0223189, Final residual = 0.00218479, No Iterations 9
smoothSolver:  Solving for Uz, Initial residual = 0.0188246, Final residual = 0.00180451, No Iterations 9
GAMG:  Solving for p, Initial residual = 0.0101697, Final residual = 7.63044e-05, No Iterations 4
time step continuity errors : sum local = 0.000114398, global = -6.95552e-07, cumulative = -0.000101307
smoothSolver:  Solving for omega, Initial residual = 0.000145695, Final residual = 1.33889e-05, No Iterations 3
smoothSolver:  Solving for k, Initial residual = 0.00197682, Final residual = 0.000126646, No Iterations 4
ExecutionTime = 7.55 s  ClockTime = 9 s

forceCoeffs forceCoeffs1 write:
    Cm    = 0.159041
    Cd    = 0.408484
    Cl    = 0.0745506
    Cl(f) = 0.196316
    Cl(r) = -0.121766

Time = 90

smoothSolver:  Solving for Ux, Initial residual = 0.000913295, Final residual = 8.09048e-05, No Iterations 10
smoothSolver:  Solving for Uy, Initial residual = 0.0223395, Final residual = 0.00218834, No Iterations 9
smoothSolver:  Solving for Uz, Initial residual = 0.0186207, Final residual = 0.00178407, No Iterations 9
GAMG:  Solving for p, Initial residual = 0.0101489, Final residual = 7.42586e-05, No Iterations 4
time step continuity errors : sum local = 0.00011099, global = -5.71144e-07, cumulative = -0.000101878
smoothSolver:  Solving for omega, Initial residual = 0.000145721, Final residual = 1.33371e-05, No Iterations 3
smoothSolver:  Solving for k, Initial residual = 0.00197773, Final residual = 0.000126124, No Iterations 4
ExecutionTime = 7.61 s  ClockTime = 9 s

forceCoeffs forceCoeffs1 write:
    Cm    = 0.159384
    Cd    = 0.408373
    Cl    = 0.0748277
    Cl(f) = 0.196798
    Cl(r) = -0.12197

Time = 91

smoothSolver:  Solving for Ux, Initial residual = 0.000909117, Final residual = 8.06612e-05, No Iterations 10
smoothSolver:  Solving for Uy, Initial residual = 0.0224027, Final residual = 0.00220256, No Iterations 9
smoothSolver:  Solving for Uz, Initial residual = 0.0183747, Final residual = 0.00176487, No Iterations 9
GAMG:  Solving for p, Initial residual = 0.0101824, Final residual = 7.23926e-05, No Iterations 4
time step continuity errors : sum local = 0.000107767, global = -5.18276e-07, cumulative = -0.000102396
smoothSolver:  Solving for omega, Initial residual = 0.000145288, Final residual = 1.32507e-05, No Iterations 3
smoothSolver:  Solving for k, Initial residual = 0.00197762, Final residual = 0.000125525, No Iterations 4
ExecutionTime = 7.67 s  ClockTime = 9 s

forceCoeffs forceCoeffs1 write:
    Cm    = 0.159499
    Cd    = 0.407938
    Cl    = 0.075087
    Cl(f) = 0.197043
    Cl(r) = -0.121956

Time = 92

smoothSolver:  Solving for Ux, Initial residual = 0.000904736, Final residual = 8.06994e-05, No Iterations 10
smoothSolver:  Solving for Uy, Initial residual = 0.0224249, Final residual = 0.00220757, No Iterations 9
smoothSolver:  Solving for Uz, Initial residual = 0.0181063, Final residual = 0.00174682, No Iterations 9
GAMG:  Solving for p, Initial residual = 0.0102249, Final residual = 7.17917e-05, No Iterations 4
time step continuity errors : sum local = 0.000106331, global = -4.98706e-07, cumulative = -0.000102895
smoothSolver:  Solving for omega, Initial residual = 0.000144566, Final residual = 1.31458e-05, No Iterations 3
smoothSolver:  Solving for k, Initial residual = 0.00197561, Final residual = 0.000125051, No Iterations 4
ExecutionTime = 7.73 s  ClockTime = 9 s

forceCoeffs forceCoeffs1 write:
    Cm    = 0.15928
    Cd    = 0.407101
    Cl    = 0.075507
    Cl(f) = 0.197034
    Cl(r) = -0.121527

Time = 93

smoothSolver:  Solving for Ux, Initial residual = 0.000899901, Final residual = 8.07235e-05, No Iterations 10
smoothSolver:  Solving for Uy, Initial residual = 0.0223869, Final residual = 0.00220168, No Iterations 9
smoothSolver:  Solving for Uz, Initial residual = 0.0178281, Final residual = 0.0017291, No Iterations 9
GAMG:  Solving for p, Initial residual = 0.0102258, Final residual = 7.23425e-05, No Iterations 4
time step continuity errors : sum local = 0.000106572, global = -4.89105e-07, cumulative = -0.000103384
smoothSolver:  Solving for omega, Initial residual = 0.000144948, Final residual = 1.31529e-05, No Iterations 3
smoothSolver:  Solving for k, Initial residual = 0.00197367, Final residual = 0.000124702, No Iterations 4
ExecutionTime = 7.79 s  ClockTime = 9 s

forceCoeffs forceCoeffs1 write:
    Cm    = 0.158742
    Cd    = 0.405975
    Cl    = 0.076053
    Cl(f) = 0.196768
    Cl(r) = -0.120715

Time = 94

smoothSolver:  Solving for Ux, Initial residual = 0.000894566, Final residual = 8.08128e-05, No Iterations 10
smoothSolver:  Solving for Uy, Initial residual = 0.0222471, Final residual = 0.00218715, No Iterations 9
smoothSolver:  Solving for Uz, Initial residual = 0.0175502, Final residual = 0.00170835, No Iterations 9
GAMG:  Solving for p, Initial residual = 0.0101562, Final residual = 7.37552e-05, No Iterations 4
time step continuity errors : sum local = 0.000108108, global = -5.12256e-07, cumulative = -0.000103896
smoothSolver:  Solving for omega, Initial residual = 0.000145268, Final residual = 1.31826e-05, No Iterations 3
smoothSolver:  Solving for k, Initial residual = 0.00196694, Final residual = 0.00012429, No Iterations 4
ExecutionTime = 7.86 s  ClockTime = 9 s

forceCoeffs forceCoeffs1 write:
    Cm    = 0.157957
    Cd    = 0.404642
    Cl    = 0.0766687
    Cl(f) = 0.196291
    Cl(r) = -0.119622

Time = 95

smoothSolver:  Solving for Ux, Initial residual = 0.000890322, Final residual = 8.10612e-05, No Iterations 10
smoothSolver:  Solving for Uy, Initial residual = 0.02204, Final residual = 0.00217262, No Iterations 9
smoothSolver:  Solving for Uz, Initial residual = 0.0172629, Final residual = 0.00168696, No Iterations 9
GAMG:  Solving for p, Initial residual = 0.0100559, Final residual = 7.55307e-05, No Iterations 4
time step continuity errors : sum local = 0.000110261, global = -5.45307e-07, cumulative = -0.000104442
smoothSolver:  Solving for omega, Initial residual = 0.000145552, Final residual = 1.31965e-05, No Iterations 3
smoothSolver:  Solving for k, Initial residual = 0.00195406, Final residual = 0.000123683, No Iterations 4
ExecutionTime = 7.92 s  ClockTime = 9 s

forceCoeffs forceCoeffs1 write:
    Cm    = 0.157051
    Cd    = 0.403333
    Cl    = 0.076964
    Cl(f) = 0.195533
    Cl(r) = -0.118569

Time = 96

smoothSolver:  Solving for Ux, Initial residual = 0.000889518, Final residual = 8.14975e-05, No Iterations 10
smoothSolver:  Solving for Uy, Initial residual = 0.021824, Final residual = 0.00215189, No Iterations 9
smoothSolver:  Solving for Uz, Initial residual = 0.0170633, Final residual = 0.00167137, No Iterations 9
GAMG:  Solving for p, Initial residual = 0.00994117, Final residual = 7.68306e-05, No Iterations 4
time step continuity errors : sum local = 0.000111859, global = -6.36549e-07, cumulative = -0.000105078
smoothSolver:  Solving for omega, Initial residual = 0.000146193, Final residual = 1.32213e-05, No Iterations 3
smoothSolver:  Solving for k, Initial residual = 0.00193844, Final residual = 0.000122862, No Iterations 4
ExecutionTime = 7.98 s  ClockTime = 9 s

forceCoeffs forceCoeffs1 write:
    Cm    = 0.156226
    Cd    = 0.402181
    Cl    = 0.0769773
    Cl(f) = 0.194714
    Cl(r) = -0.117737

Time = 97

smoothSolver:  Solving for Ux, Initial residual = 0.000891496, Final residual = 8.20303e-05, No Iterations 10
smoothSolver:  Solving for Uy, Initial residual = 0.0216176, Final residual = 0.00212657, No Iterations 9
smoothSolver:  Solving for Uz, Initial residual = 0.0170049, Final residual = 0.00167031, No Iterations 9
GAMG:  Solving for p, Initial residual = 0.00987212, Final residual = 7.76346e-05, No Iterations 4
time step continuity errors : sum local = 0.000112914, global = -2.29988e-07, cumulative = -0.000105308
smoothSolver:  Solving for omega, Initial residual = 0.000147022, Final residual = 1.32681e-05, No Iterations 3
smoothSolver:  Solving for k, Initial residual = 0.0019207, Final residual = 0.000121983, No Iterations 4
ExecutionTime = 8.04 s  ClockTime = 9 s

forceCoeffs forceCoeffs1 write:
    Cm    = 0.155701
    Cd    = 0.401358
    Cl    = 0.0766278
    Cl(f) = 0.194015
    Cl(r) = -0.117387

Time = 98

smoothSolver:  Solving for Ux, Initial residual = 0.000896789, Final residual = 8.23897e-05, No Iterations 10
smoothSolver:  Solving for Uy, Initial residual = 0.0214736, Final residual = 0.00210365, No Iterations 9
smoothSolver:  Solving for Uz, Initial residual = 0.0170325, Final residual = 0.00167846, No Iterations 9
GAMG:  Solving for p, Initial residual = 0.00985648, Final residual = 7.89113e-05, No Iterations 4
time step continuity errors : sum local = 0.000114838, global = 5.14367e-07, cumulative = -0.000104794
smoothSolver:  Solving for omega, Initial residual = 0.000146973, Final residual = 1.328e-05, No Iterations 3
smoothSolver:  Solving for k, Initial residual = 0.00190174, Final residual = 0.000121128, No Iterations 4
ExecutionTime = 8.09 s  ClockTime = 9 s

forceCoeffs forceCoeffs1 write:
    Cm    = 0.155639
    Cd    = 0.401012
    Cl    = 0.076431
    Cl(f) = 0.193854
    Cl(r) = -0.117423

Time = 99

smoothSolver:  Solving for Ux, Initial residual = 0.000901264, Final residual = 8.2184e-05, No Iterations 10
smoothSolver:  Solving for Uy, Initial residual = 0.0213648, Final residual = 0.00207373, No Iterations 9
smoothSolver:  Solving for Uz, Initial residual = 0.0170914, Final residual = 0.00168325, No Iterations 9
GAMG:  Solving for p, Initial residual = 0.00989516, Final residual = 8.03632e-05, No Iterations 4
time step continuity errors : sum local = 0.00011711, global = 5.78814e-07, cumulative = -0.000104215
smoothSolver:  Solving for omega, Initial residual = 0.000146809, Final residual = 1.32598e-05, No Iterations 3
smoothSolver:  Solving for k, Initial residual = 0.00188172, Final residual = 0.000120162, No Iterations 4
ExecutionTime = 8.15 s  ClockTime = 9 s

forceCoeffs forceCoeffs1 write:
    Cm    = 0.155998
    Cd    = 0.40112
    Cl    = 0.0768471
    Cl(f) = 0.194421
    Cl(r) = -0.117574

Time = 100

smoothSolver:  Solving for Ux, Initial residual = 0.000900926, Final residual = 8.12468e-05, No Iterations 10
smoothSolver:  Solving for Uy, Initial residual = 0.0211385, Final residual = 0.00203366, No Iterations 9
smoothSolver:  Solving for Uz, Initial residual = 0.017082, Final residual = 0.00167735, No Iterations 9
GAMG:  Solving for p, Initial residual = 0.00997655, Final residual = 8.03614e-05, No Iterations 4
time step continuity errors : sum local = 0.000117257, global = 6.67226e-07, cumulative = -0.000103548
smoothSolver:  Solving for omega, Initial residual = 0.000145954, Final residual = 1.31607e-05, No Iterations 3
bounding omega, min: -15.7909 max: 543090 average: 937.261
smoothSolver:  Solving for k, Initial residual = 0.00185979, Final residual = 0.000118903, No Iterations 4
ExecutionTime = 8.22 s  ClockTime = 10 s

forceCoeffs forceCoeffs1 write:
    Cm    = 0.156624
    Cd    = 0.401611
    Cl    = 0.0778583
    Cl(f) = 0.195553
    Cl(r) = -0.117695

End

Finalising parallel run
