Cleaning /alaska/steveb/hpc-tests/stage/alaska/roce-gcc9-openmpi4-ucx/openfoam/Openfoam_Mbike_1 case
Running surfaceFeatureExtract on /alaska/steveb/hpc-tests/stage/alaska/roce-gcc9-openmpi4-ucx/openfoam/Openfoam_Mbike_1
Running blockMesh on /alaska/steveb/hpc-tests/stage/alaska/roce-gcc9-openmpi4-ucx/openfoam/Openfoam_Mbike_1
Running decomposePar on /alaska/steveb/hpc-tests/stage/alaska/roce-gcc9-openmpi4-ucx/openfoam/Openfoam_Mbike_1
Running snappyHexMesh in parallel on /alaska/steveb/hpc-tests/stage/alaska/roce-gcc9-openmpi4-ucx/openfoam/Openfoam_Mbike_1 using 32 processes
/*---------------------------------------------------------------------------*\
  =========                 |
  \\      /  F ield         | OpenFOAM: The Open Source CFD Toolbox
   \\    /   O peration     | Website:  https://openfoam.org
    \\  /    A nd           | Version:  7
     \\/     M anipulation  |
\*---------------------------------------------------------------------------*/
Build  : 7
Exec   : /alaska/steveb/spack/opt/spack/linux-centos7-broadwell/gcc-9.3.0/openfoam-org-7-4zgjbg262zaxxjzrnrn5dq63faiv6uvo/platforms/linux64GccDPInt32-spack/bin/simpleFoam -parallel
Date   : Sep 11 2020
Time   : 10:27:16
Host   : "openhpc-compute-1"
PID    : 39181
I/O    : uncollated
Case   : /alaska/steveb/hpc-tests/stage/alaska/roce-gcc9-openmpi4-ucx/openfoam/Openfoam_Mbike_1
nProcs : 32
Slaves : 
31
(
"openhpc-compute-1.39182"
"openhpc-compute-1.39183"
"openhpc-compute-1.39184"
"openhpc-compute-1.39185"
"openhpc-compute-1.39186"
"openhpc-compute-1.39187"
"openhpc-compute-1.39188"
"openhpc-compute-1.39189"
"openhpc-compute-1.39190"
"openhpc-compute-1.39191"
"openhpc-compute-1.39192"
"openhpc-compute-1.39193"
"openhpc-compute-1.39194"
"openhpc-compute-1.39195"
"openhpc-compute-1.39196"
"openhpc-compute-1.39197"
"openhpc-compute-1.39198"
"openhpc-compute-1.39199"
"openhpc-compute-1.39200"
"openhpc-compute-1.39201"
"openhpc-compute-1.39202"
"openhpc-compute-1.39203"
"openhpc-compute-1.39204"
"openhpc-compute-1.39205"
"openhpc-compute-1.39206"
"openhpc-compute-1.39207"
"openhpc-compute-1.39208"
"openhpc-compute-1.39209"
"openhpc-compute-1.39210"
"openhpc-compute-1.39211"
"openhpc-compute-1.39212"
)

Pstream initialized with:
    floatTransfer      : 0
    nProcsSimpleSum    : 0
    commsType          : nonBlocking
    polling iterations : 0
sigFpe : Enabling floating point exception trapping (FOAM_SIGFPE).
fileModificationChecking : Monitoring run-time modified files using timeStampMaster (fileModificationSkew 10)
allowSystemOperations : Allowing user-supplied system call operations

// * * * * * * * * * * * * * * * * * * * * * * * * * * * * * * * * * * * * * //
Create time

Create mesh for time = 0


SIMPLE: No convergence criteria found

Reading field p

Reading field U

Reading/calculating face flux field phi

Selecting incompressible transport model Newtonian
Selecting turbulence model type RAS
Selecting RAS turbulence model kOmegaSST
Selecting patchDistMethod meshWave
RAS
{
    RASModel        kOmegaSST;
    turbulence      on;
    printCoeffs     on;
    alphaK1         0.85;
    alphaK2         1;
    alphaOmega1     0.5;
    alphaOmega2     0.856;
    gamma1          0.555556;
    gamma2          0.44;
    beta1           0.075;
    beta2           0.0828;
    betaStar        0.09;
    a1              0.31;
    b1              1;
    c1              10;
    F3              false;
}

No MRF models present

No finite volume options present

Starting time loop

Reading surface description:
    yNormal

forces forceCoeffs1:
    Not including porosity effects
forceCoeffs forceCoeffs1:
    Not including porosity effects
Time = 1

smoothSolver:  Solving for Ux, Initial residual = 1, Final residual = 0.0985789, No Iterations 13
smoothSolver:  Solving for Uy, Initial residual = 1, Final residual = 0.090712, No Iterations 12
smoothSolver:  Solving for Uz, Initial residual = 1, Final residual = 0.0838994, No Iterations 13
GAMG:  Solving for p, Initial residual = 1, Final residual = 0.00931976, No Iterations 6
time step continuity errors : sum local = 0.000658237, global = -7.32442e-07, cumulative = -7.32442e-07
smoothSolver:  Solving for omega, Initial residual = 0.029202, Final residual = 0.00123704, No Iterations 3
bounding omega, min: -1264.17 max: 72339.3 average: 499.768
smoothSolver:  Solving for k, Initial residual = 1, Final residual = 0.0489602, No Iterations 4
ExecutionTime = 2.34 s  ClockTime = 2 s

forceCoeffs forceCoeffs1 write:
    Cm    = 12.2263
    Cd    = 26.4272
    Cl    = -1.73336
    Cl(f) = 11.3596
    Cl(r) = -13.093

Time = 2

smoothSolver:  Solving for Ux, Initial residual = 0.106929, Final residual = 0.0101103, No Iterations 11
smoothSolver:  Solving for Uy, Initial residual = 0.517236, Final residual = 0.0446843, No Iterations 11
smoothSolver:  Solving for Uz, Initial residual = 0.394021, Final residual = 0.0326303, No Iterations 11
GAMG:  Solving for p, Initial residual = 0.23661, Final residual = 0.00109464, No Iterations 5
time step continuity errors : sum local = 0.00474206, global = -4.3982e-07, cumulative = -1.17226e-06
smoothSolver:  Solving for omega, Initial residual = 0.999999, Final residual = 0.0449553, No Iterations 4
smoothSolver:  Solving for k, Initial residual = 0.969597, Final residual = 6.45862e-08, No Iterations 1
ExecutionTime = 3.45 s  ClockTime = 3 s

forceCoeffs forceCoeffs1 write:
    Cm    = 4.65137
    Cd    = 10.6821
    Cl    = -0.311029
    Cl(f) = 4.49586
    Cl(r) = -4.80688

Time = 3

smoothSolver:  Solving for Ux, Initial residual = 0.124763, Final residual = 0.0095356, No Iterations 5
smoothSolver:  Solving for Uy, Initial residual = 0.550169, Final residual = 0.0546474, No Iterations 5
smoothSolver:  Solving for Uz, Initial residual = 0.612985, Final residual = 0.0441689, No Iterations 5
GAMG:  Solving for p, Initial residual = 0.148047, Final residual = 0.000778527, No Iterations 5
time step continuity errors : sum local = 0.00263227, global = 2.61333e-05, cumulative = 2.49611e-05
smoothSolver:  Solving for omega, Initial residual = 0.538467, Final residual = 1.0365e-12, No Iterations 1
bounding omega, min: -3.50295e+08 max: 4.75015e+15 average: 1.25642e+10
smoothSolver:  Solving for k, Initial residual = 0.115021, Final residual = 7.76206e-08, No Iterations 1
ExecutionTime = 4.44 s  ClockTime = 4 s

forceCoeffs forceCoeffs1 write:
    Cm    = 2.86924
    Cd    = 6.25999
    Cl    = -0.570202
    Cl(f) = 2.58414
    Cl(r) = -3.15434

Time = 4

smoothSolver:  Solving for Ux, Initial residual = 0.050872, Final residual = 0.00398199, No Iterations 6
smoothSolver:  Solving for Uy, Initial residual = 0.448162, Final residual = 0.035937, No Iterations 6
smoothSolver:  Solving for Uz, Initial residual = 0.440118, Final residual = 0.0420161, No Iterations 5
GAMG:  Solving for p, Initial residual = 0.0786591, Final residual = 0.000342789, No Iterations 5
time step continuity errors : sum local = 0.0014241, global = 1.83969e-05, cumulative = 4.33579e-05
smoothSolver:  Solving for omega, Initial residual = 0.538467, Final residual = 2.49388e-12, No Iterations 1
bounding omega, min: -1.12813e+07 max: 1.42504e+15 average: 3.76943e+09
smoothSolver:  Solving for k, Initial residual = 0.0270402, Final residual = 2.08543e-07, No Iterations 1
ExecutionTime = 5.44 s  ClockTime = 5 s

forceCoeffs forceCoeffs1 write:
    Cm    = 1.19548
    Cd    = 2.81482
    Cl    = -0.45861
    Cl(f) = 0.966178
    Cl(r) = -1.42479

Time = 5

smoothSolver:  Solving for Ux, Initial residual = 0.0232241, Final residual = 0.00191228, No Iterations 7
smoothSolver:  Solving for Uy, Initial residual = 0.345291, Final residual = 0.0336061, No Iterations 6
smoothSolver:  Solving for Uz, Initial residual = 0.324348, Final residual = 0.0302816, No Iterations 6
GAMG:  Solving for p, Initial residual = 0.0605389, Final residual = 0.000491591, No Iterations 4
time step continuity errors : sum local = 0.00227895, global = 3.87615e-06, cumulative = 4.72341e-05
smoothSolver:  Solving for omega, Initial residual = 0.538467, Final residual = 9.18362e-12, No Iterations 1
bounding omega, min: -566239 max: 4.27513e+14 average: 1.13084e+09
smoothSolver:  Solving for k, Initial residual = 0.00696244, Final residual = 6.10388e-07, No Iterations 1
ExecutionTime = 6.41 s  ClockTime = 6 s

forceCoeffs forceCoeffs1 write:
    Cm    = 0.637267
    Cd    = 1.54452
    Cl    = -0.306491
    Cl(f) = 0.484022
    Cl(r) = -0.790512

Time = 6

smoothSolver:  Solving for Ux, Initial residual = 0.0163131, Final residual = 0.00139148, No Iterations 7
smoothSolver:  Solving for Uy, Initial residual = 0.28658, Final residual = 0.0229397, No Iterations 7
smoothSolver:  Solving for Uz, Initial residual = 0.263888, Final residual = 0.0253708, No Iterations 6
GAMG:  Solving for p, Initial residual = 0.0528002, Final residual = 0.000407551, No Iterations 4
time step continuity errors : sum local = 0.00183729, global = 8.05832e-06, cumulative = 5.52924e-05
smoothSolver:  Solving for omega, Initial residual = 0.538467, Final residual = 3.0542e-11, No Iterations 1
bounding omega, min: -1864.17 max: 1.28254e+14 average: 3.39252e+08
smoothSolver:  Solving for k, Initial residual = 0.00186767, Final residual = 1.79951e-06, No Iterations 1
ExecutionTime = 7.38 s  ClockTime = 7 s

forceCoeffs forceCoeffs1 write:
    Cm    = 0.408637
    Cd    = 0.994545
    Cl    = -0.15557
    Cl(f) = 0.330852
    Cl(r) = -0.486422

Time = 7

smoothSolver:  Solving for Ux, Initial residual = 0.0125607, Final residual = 0.00113484, No Iterations 7
smoothSolver:  Solving for Uy, Initial residual = 0.244171, Final residual = 0.0209209, No Iterations 7
smoothSolver:  Solving for Uz, Initial residual = 0.227113, Final residual = 0.0177964, No Iterations 7
GAMG:  Solving for p, Initial residual = 0.0479712, Final residual = 0.000341407, No Iterations 4
time step continuity errors : sum local = 0.00149593, global = 1.84125e-05, cumulative = 7.37049e-05
smoothSolver:  Solving for omega, Initial residual = 0.538467, Final residual = 1.01034e-10, No Iterations 1
bounding omega, min: -1808.1 max: 3.84762e+13 average: 1.01777e+08
smoothSolver:  Solving for k, Initial residual = 0.000528131, Final residual = 5.494e-06, No Iterations 1
ExecutionTime = 8.38 s  ClockTime = 8 s

forceCoeffs forceCoeffs1 write:
    Cm    = 0.327542
    Cd    = 0.774119
    Cl    = -0.0870437
    Cl(f) = 0.28402
    Cl(r) = -0.371064

Time = 8

smoothSolver:  Solving for Ux, Initial residual = 0.0103746, Final residual = 0.000981224, No Iterations 7
smoothSolver:  Solving for Uy, Initial residual = 0.212643, Final residual = 0.0187617, No Iterations 7
smoothSolver:  Solving for Uz, Initial residual = 0.203297, Final residual = 0.0168621, No Iterations 7
GAMG:  Solving for p, Initial residual = 0.0445158, Final residual = 0.000299889, No Iterations 4
time step continuity errors : sum local = 0.00127563, global = 3.26741e-05, cumulative = 0.000106379
smoothSolver:  Solving for omega, Initial residual = 0.538467, Final residual = 3.49343e-10, No Iterations 1
bounding omega, min: -2733.93 max: 1.15429e+13 average: 3.05343e+07
smoothSolver:  Solving for k, Initial residual = 0.000187522, Final residual = 1.71201e-05, No Iterations 1
ExecutionTime = 9.37 s  ClockTime = 9 s

forceCoeffs forceCoeffs1 write:
    Cm    = 0.291806
    Cd    = 0.661531
    Cl    = -0.0622463
    Cl(f) = 0.260683
    Cl(r) = -0.32293

Time = 9

smoothSolver:  Solving for Ux, Initial residual = 0.00893303, Final residual = 0.000886529, No Iterations 7
smoothSolver:  Solving for Uy, Initial residual = 0.186211, Final residual = 0.0167356, No Iterations 7
smoothSolver:  Solving for Uz, Initial residual = 0.191642, Final residual = 0.0167364, No Iterations 7
GAMG:  Solving for p, Initial residual = 0.0422579, Final residual = 0.000277038, No Iterations 4
time step continuity errors : sum local = 0.0011499, global = 3.35571e-05, cumulative = 0.000139936
smoothSolver:  Solving for omega, Initial residual = 0.538467, Final residual = 1.08998e-09, No Iterations 1
smoothSolver:  Solving for k, Initial residual = 0.000177564, Final residual = 1.0603e-05, No Iterations 3
ExecutionTime = 10.35 s  ClockTime = 10 s

forceCoeffs forceCoeffs1 write:
    Cm    = 0.27591
    Cd    = 0.599255
    Cl    = -0.0584602
    Cl(f) = 0.24668
    Cl(r) = -0.30514

Time = 10

smoothSolver:  Solving for Ux, Initial residual = 0.00807962, Final residual = 0.000631612, No Iterations 8
smoothSolver:  Solving for Uy, Initial residual = 0.166224, Final residual = 0.0152585, No Iterations 7
smoothSolver:  Solving for Uz, Initial residual = 0.187587, Final residual = 0.0167696, No Iterations 7
GAMG:  Solving for p, Initial residual = 0.0404643, Final residual = 0.000267769, No Iterations 4
time step continuity errors : sum local = 0.00107855, global = 2.05372e-05, cumulative = 0.000160473
smoothSolver:  Solving for omega, Initial residual = 0.538466, Final residual = 2.56117e-09, No Iterations 1
smoothSolver:  Solving for k, Initial residual = 0.000417957, Final residual = 3.22358e-05, No Iterations 3
ExecutionTime = 11.34 s  ClockTime = 11 s

forceCoeffs forceCoeffs1 write:
    Cm    = 0.257093
    Cd    = 0.553396
    Cl    = -0.0536375
    Cl(f) = 0.230274
    Cl(r) = -0.283912

Time = 11

smoothSolver:  Solving for Ux, Initial residual = 0.00733552, Final residual = 0.000588005, No Iterations 8
smoothSolver:  Solving for Uy, Initial residual = 0.152676, Final residual = 0.0146104, No Iterations 7
smoothSolver:  Solving for Uz, Initial residual = 0.180214, Final residual = 0.0168932, No Iterations 7
GAMG:  Solving for p, Initial residual = 0.0392662, Final residual = 0.00026079, No Iterations 4
time step continuity errors : sum local = 0.00101446, global = 1.02035e-05, cumulative = 0.000170677
smoothSolver:  Solving for omega, Initial residual = 0.538466, Final residual = 4.30747e-09, No Iterations 1
smoothSolver:  Solving for k, Initial residual = 0.00114179, Final residual = 8.97874e-05, No Iterations 3
ExecutionTime = 12.33 s  ClockTime = 12 s

forceCoeffs forceCoeffs1 write:
    Cm    = 0.239632
    Cd    = 0.51159
    Cl    = -0.0440819
    Cl(f) = 0.217591
    Cl(r) = -0.261673

Time = 12

smoothSolver:  Solving for Ux, Initial residual = 0.00676511, Final residual = 0.000561957, No Iterations 8
smoothSolver:  Solving for Uy, Initial residual = 0.142694, Final residual = 0.0142288, No Iterations 7
smoothSolver:  Solving for Uz, Initial residual = 0.168802, Final residual = 0.0163841, No Iterations 7
GAMG:  Solving for p, Initial residual = 0.0383356, Final residual = 0.000253997, No Iterations 4
time step continuity errors : sum local = 0.000952005, global = 1.05536e-06, cumulative = 0.000171732
smoothSolver:  Solving for omega, Initial residual = 0.538464, Final residual = 8.19762e-09, No Iterations 1
bounding omega, min: -5538.02 max: 9.34971e+10 average: 248600
smoothSolver:  Solving for k, Initial residual = 0.00249271, Final residual = 0.000198841, No Iterations 3
ExecutionTime = 13.32 s  ClockTime = 13 s

forceCoeffs forceCoeffs1 write:
    Cm    = 0.225315
    Cd    = 0.481798
    Cl    = -0.0393292
    Cl(f) = 0.205651
    Cl(r) = -0.24498

Time = 13

smoothSolver:  Solving for Ux, Initial residual = 0.0063664, Final residual = 0.000546682, No Iterations 8
smoothSolver:  Solving for Uy, Initial residual = 0.135463, Final residual = 0.0106491, No Iterations 8
smoothSolver:  Solving for Uz, Initial residual = 0.156299, Final residual = 0.0121119, No Iterations 8
GAMG:  Solving for p, Initial residual = 0.0376498, Final residual = 0.000253482, No Iterations 4
time step continuity errors : sum local = 0.000913902, global = -5.73992e-06, cumulative = 0.000165992
smoothSolver:  Solving for omega, Initial residual = 0.538458, Final residual = 3.87331e-08, No Iterations 1
bounding omega, min: -693.04 max: 2.80491e+10 average: 75433.6
smoothSolver:  Solving for k, Initial residual = 0.00388022, Final residual = 0.0003162, No Iterations 3
bounding k, min: -3.04415e-08 max: 226.041 average: 0.564474
ExecutionTime = 14.34 s  ClockTime = 14 s

forceCoeffs forceCoeffs1 write:
    Cm    = 0.213717
    Cd    = 0.461445
    Cl    = -0.0335355
    Cl(f) = 0.196949
    Cl(r) = -0.230485

Time = 14

smoothSolver:  Solving for Ux, Initial residual = 0.00608167, Final residual = 0.000538587, No Iterations 8
smoothSolver:  Solving for Uy, Initial residual = 0.128171, Final residual = 0.0103323, No Iterations 8
smoothSolver:  Solving for Uz, Initial residual = 0.149611, Final residual = 0.0119309, No Iterations 8
GAMG:  Solving for p, Initial residual = 0.0370991, Final residual = 0.000242603, No Iterations 4
time step continuity errors : sum local = 0.000839009, global = -9.07636e-06, cumulative = 0.000156916
smoothSolver:  Solving for omega, Initial residual = 0.538439, Final residual = 2.08111e-07, No Iterations 1
bounding omega, min: -3223.15 max: 8.41474e+09 average: 23452.3
smoothSolver:  Solving for k, Initial residual = 0.00468054, Final residual = 0.000393589, No Iterations 3
bounding k, min: -8.01212e-08 max: 706.223 average: 0.579708
ExecutionTime = 15.38 s  ClockTime = 15 s

forceCoeffs forceCoeffs1 write:
    Cm    = 0.204554
    Cd    = 0.452182
    Cl    = -0.0212854
    Cl(f) = 0.193911
    Cl(r) = -0.215197

Time = 15

smoothSolver:  Solving for Ux, Initial residual = 0.00581923, Final residual = 0.000534086, No Iterations 8
smoothSolver:  Solving for Uy, Initial residual = 0.121181, Final residual = 0.0101452, No Iterations 8
smoothSolver:  Solving for Uz, Initial residual = 0.144249, Final residual = 0.0119553, No Iterations 8
GAMG:  Solving for p, Initial residual = 0.0366609, Final residual = 0.000237635, No Iterations 4
time step continuity errors : sum local = 0.00078457, global = -9.70988e-06, cumulative = 0.000147206
smoothSolver:  Solving for omega, Initial residual = 0.538371, Final residual = 9.64527e-07, No Iterations 1
smoothSolver:  Solving for k, Initial residual = 0.00506019, Final residual = 0.000437676, No Iterations 3
bounding k, min: -2.39497e-07 max: 414.72 average: 0.592761
ExecutionTime = 16.39 s  ClockTime = 16 s

forceCoeffs forceCoeffs1 write:
    Cm    = 0.19486
    Cd    = 0.442399
    Cl    = -0.00438081
    Cl(f) = 0.19267
    Cl(r) = -0.197051

Time = 16

smoothSolver:  Solving for Ux, Initial residual = 0.00565052, Final residual = 0.000533116, No Iterations 8
smoothSolver:  Solving for Uy, Initial residual = 0.114343, Final residual = 0.00991509, No Iterations 8
smoothSolver:  Solving for Uz, Initial residual = 0.136996, Final residual = 0.0117524, No Iterations 8
GAMG:  Solving for p, Initial residual = 0.0365498, Final residual = 0.000240876, No Iterations 4
time step continuity errors : sum local = 0.000754835, global = -7.79829e-06, cumulative = 0.000139408
smoothSolver:  Solving for omega, Initial residual = 0.538112, Final residual = 3.41315e-06, No Iterations 1
bounding omega, min: -325.287 max: 7.57327e+08 average: 3136.91
smoothSolver:  Solving for k, Initial residual = 0.00511481, Final residual = 0.00046197, No Iterations 3
bounding k, min: -4.55141e-08 max: 391.53 average: 0.604379
ExecutionTime = 17.42 s  ClockTime = 17 s

forceCoeffs forceCoeffs1 write:
    Cm    = 0.186236
    Cd    = 0.436933
    Cl    = 0.0138928
    Cl(f) = 0.193182
    Cl(r) = -0.179289

Time = 17

smoothSolver:  Solving for Ux, Initial residual = 0.00548796, Final residual = 0.000531102, No Iterations 8
smoothSolver:  Solving for Uy, Initial residual = 0.109103, Final residual = 0.00973642, No Iterations 8
smoothSolver:  Solving for Uz, Initial residual = 0.130858, Final residual = 0.0116193, No Iterations 8
GAMG:  Solving for p, Initial residual = 0.0364805, Final residual = 0.000243012, No Iterations 4
time step continuity errors : sum local = 0.000722695, global = -5.7376e-06, cumulative = 0.00013367
smoothSolver:  Solving for omega, Initial residual = 0.536908, Final residual = 1.1411e-05, No Iterations 1
bounding omega, min: -546.463 max: 2.27198e+08 average: 1710.29
smoothSolver:  Solving for k, Initial residual = 0.00520635, Final residual = 0.00048253, No Iterations 3
bounding k, min: -1.59284e-08 max: 378.206 average: 0.61483
ExecutionTime = 18.46 s  ClockTime = 18 s

forceCoeffs forceCoeffs1 write:
    Cm    = 0.177155
    Cd    = 0.429032
    Cl    = 0.0219447
    Cl(f) = 0.188128
    Cl(r) = -0.166183

Time = 18

smoothSolver:  Solving for Ux, Initial residual = 0.00534316, Final residual = 0.000526864, No Iterations 8
smoothSolver:  Solving for Uy, Initial residual = 0.105572, Final residual = 0.00965382, No Iterations 8
smoothSolver:  Solving for Uz, Initial residual = 0.126843, Final residual = 0.0115341, No Iterations 8
GAMG:  Solving for p, Initial residual = 0.0365185, Final residual = 0.000242526, No Iterations 4
time step continuity errors : sum local = 0.00068368, global = -3.58285e-06, cumulative = 0.000130087
smoothSolver:  Solving for omega, Initial residual = 0.529245, Final residual = 3.85607e-05, No Iterations 1
smoothSolver:  Solving for k, Initial residual = 0.00532987, Final residual = 0.000500709, No Iterations 3
bounding k, min: -2.67447e-08 max: 488.914 average: 0.622931
ExecutionTime = 19.48 s  ClockTime = 19 s

forceCoeffs forceCoeffs1 write:
    Cm    = 0.171684
    Cd    = 0.424065
    Cl    = 0.0250553
    Cl(f) = 0.184212
    Cl(r) = -0.159156

Time = 19

smoothSolver:  Solving for Ux, Initial residual = 0.00515052, Final residual = 0.000405754, No Iterations 9
smoothSolver:  Solving for Uy, Initial residual = 0.102385, Final residual = 0.00957447, No Iterations 8
smoothSolver:  Solving for Uz, Initial residual = 0.120317, Final residual = 0.0112658, No Iterations 8
GAMG:  Solving for p, Initial residual = 0.0363855, Final residual = 0.000246142, No Iterations 4
time step continuity errors : sum local = 0.000659706, global = -1.00666e-06, cumulative = 0.000129081
smoothSolver:  Solving for omega, Initial residual = 0.471338, Final residual = 0.000136978, No Iterations 1
bounding omega, min: -2542.64 max: 2.0448e+07 average: 1120.66
smoothSolver:  Solving for k, Initial residual = 0.00535484, Final residual = 0.000519444, No Iterations 3
ExecutionTime = 20.49 s  ClockTime = 20 s

forceCoeffs forceCoeffs1 write:
    Cm    = 0.170184
    Cd    = 0.423397
    Cl    = 0.0222928
    Cl(f) = 0.181331
    Cl(r) = -0.159038

Time = 20

smoothSolver:  Solving for Ux, Initial residual = 0.0049476, Final residual = 0.000397938, No Iterations 9
smoothSolver:  Solving for Uy, Initial residual = 0.0995794, Final residual = 0.00955556, No Iterations 8
smoothSolver:  Solving for Uz, Initial residual = 0.112913, Final residual = 0.0108975, No Iterations 8
GAMG:  Solving for p, Initial residual = 0.0360078, Final residual = 0.000252323, No Iterations 4
time step continuity errors : sum local = 0.000648656, global = 9.16412e-07, cumulative = 0.000129997
smoothSolver:  Solving for omega, Initial residual = 0.225418, Final residual = 0.000344876, No Iterations 1
smoothSolver:  Solving for k, Initial residual = 0.00542064, Final residual = 0.000537997, No Iterations 3
ExecutionTime = 21.5 s  ClockTime = 22 s

forceCoeffs forceCoeffs1 write:
    Cm    = 0.169875
    Cd    = 0.424057
    Cl    = 0.0185112
    Cl(f) = 0.17913
    Cl(r) = -0.160619

Time = 21

smoothSolver:  Solving for Ux, Initial residual = 0.00475175, Final residual = 0.000390393, No Iterations 9
smoothSolver:  Solving for Uy, Initial residual = 0.0972407, Final residual = 0.00956556, No Iterations 8
smoothSolver:  Solving for Uz, Initial residual = 0.106229, Final residual = 0.010528, No Iterations 8
GAMG:  Solving for p, Initial residual = 0.0351543, Final residual = 0.000248804, No Iterations 4
time step continuity errors : sum local = 0.000619044, global = 1.21785e-06, cumulative = 0.000131215
smoothSolver:  Solving for omega, Initial residual = 0.0353171, Final residual = 0.00038165, No Iterations 1
smoothSolver:  Solving for k, Initial residual = 0.00552134, Final residual = 0.000269233, No Iterations 4
ExecutionTime = 22.5 s  ClockTime = 23 s

forceCoeffs forceCoeffs1 write:
    Cm    = 0.171085
    Cd    = 0.424089
    Cl    = 0.0152866
    Cl(f) = 0.178729
    Cl(r) = -0.163442

Time = 22

smoothSolver:  Solving for Ux, Initial residual = 0.00458289, Final residual = 0.00038399, No Iterations 9
smoothSolver:  Solving for Uy, Initial residual = 0.0963723, Final residual = 0.00750987, No Iterations 9
smoothSolver:  Solving for Uz, Initial residual = 0.0997103, Final residual = 0.00787993, No Iterations 9
GAMG:  Solving for p, Initial residual = 0.034168, Final residual = 0.00024424, No Iterations 4
time step continuity errors : sum local = 0.000591438, global = 1.07026e-06, cumulative = 0.000132285
smoothSolver:  Solving for omega, Initial residual = 0.00425232, Final residual = 0.000336186, No Iterations 1
smoothSolver:  Solving for k, Initial residual = 0.00559156, Final residual = 0.000278005, No Iterations 4
ExecutionTime = 23.54 s  ClockTime = 24 s

forceCoeffs forceCoeffs1 write:
    Cm    = 0.171677
    Cd    = 0.423638
    Cl    = 0.0145055
    Cl(f) = 0.17893
    Cl(r) = -0.164424

Time = 23

smoothSolver:  Solving for Ux, Initial residual = 0.00442476, Final residual = 0.000376946, No Iterations 9
smoothSolver:  Solving for Uy, Initial residual = 0.0958848, Final residual = 0.0076176, No Iterations 9
smoothSolver:  Solving for Uz, Initial residual = 0.0935628, Final residual = 0.00750637, No Iterations 9
GAMG:  Solving for p, Initial residual = 0.0330494, Final residual = 0.00024299, No Iterations 4
time step continuity errors : sum local = 0.000574281, global = 8.87529e-07, cumulative = 0.000133173
smoothSolver:  Solving for omega, Initial residual = 0.00108716, Final residual = 5.89457e-05, No Iterations 3
smoothSolver:  Solving for k, Initial residual = 0.00563956, Final residual = 0.000282269, No Iterations 4
ExecutionTime = 24.57 s  ClockTime = 25 s

forceCoeffs forceCoeffs1 write:
    Cm    = 0.173098
    Cd    = 0.423254
    Cl    = 0.0162642
    Cl(f) = 0.18123
    Cl(r) = -0.164965

Time = 24

smoothSolver:  Solving for Ux, Initial residual = 0.00426904, Final residual = 0.00036953, No Iterations 9
smoothSolver:  Solving for Uy, Initial residual = 0.0953088, Final residual = 0.00771498, No Iterations 9
smoothSolver:  Solving for Uz, Initial residual = 0.0874721, Final residual = 0.00714602, No Iterations 9
GAMG:  Solving for p, Initial residual = 0.0319151, Final residual = 0.000242583, No Iterations 4
time step continuity errors : sum local = 0.000560561, global = -6.42705e-07, cumulative = 0.00013253
smoothSolver:  Solving for omega, Initial residual = 0.000658983, Final residual = 5.25469e-05, No Iterations 3
smoothSolver:  Solving for k, Initial residual = 0.00559529, Final residual = 0.000283054, No Iterations 4
ExecutionTime = 25.6 s  ClockTime = 26 s

forceCoeffs forceCoeffs1 write:
    Cm    = 0.173537
    Cd    = 0.422766
    Cl    = 0.0212439
    Cl(f) = 0.184159
    Cl(r) = -0.162916

Time = 25

smoothSolver:  Solving for Ux, Initial residual = 0.00412945, Final residual = 0.000361636, No Iterations 9
smoothSolver:  Solving for Uy, Initial residual = 0.0936497, Final residual = 0.00766721, No Iterations 9
smoothSolver:  Solving for Uz, Initial residual = 0.0815567, Final residual = 0.00679863, No Iterations 9
GAMG:  Solving for p, Initial residual = 0.0309006, Final residual = 0.000234917, No Iterations 4
time step continuity errors : sum local = 0.000530383, global = -4.63773e-06, cumulative = 0.000127892
smoothSolver:  Solving for omega, Initial residual = 0.000562045, Final residual = 4.81245e-05, No Iterations 3
smoothSolver:  Solving for k, Initial residual = 0.00566185, Final residual = 0.000292198, No Iterations 4
ExecutionTime = 26.62 s  ClockTime = 27 s

forceCoeffs forceCoeffs1 write:
    Cm    = 0.174767
    Cd    = 0.423222
    Cl    = 0.0253863
    Cl(f) = 0.18746
    Cl(r) = -0.162073

Time = 26

smoothSolver:  Solving for Ux, Initial residual = 0.00399409, Final residual = 0.0003565, No Iterations 9
smoothSolver:  Solving for Uy, Initial residual = 0.090608, Final residual = 0.00752612, No Iterations 9
smoothSolver:  Solving for Uz, Initial residual = 0.0764086, Final residual = 0.00650724, No Iterations 9
GAMG:  Solving for p, Initial residual = 0.0300105, Final residual = 0.000224281, No Iterations 4
time step continuity errors : sum local = 0.000493666, global = -1.0567e-05, cumulative = 0.000117325
smoothSolver:  Solving for omega, Initial residual = 0.000519977, Final residual = 4.4971e-05, No Iterations 3
smoothSolver:  Solving for k, Initial residual = 0.00562831, Final residual = 0.000295046, No Iterations 4
ExecutionTime = 27.65 s  ClockTime = 28 s

forceCoeffs forceCoeffs1 write:
    Cm    = 0.174587
    Cd    = 0.423024
    Cl    = 0.0285899
    Cl(f) = 0.188882
    Cl(r) = -0.160292

Time = 27

smoothSolver:  Solving for Ux, Initial residual = 0.00385643, Final residual = 0.000351139, No Iterations 9
smoothSolver:  Solving for Uy, Initial residual = 0.0869885, Final residual = 0.00732212, No Iterations 9
smoothSolver:  Solving for Uz, Initial residual = 0.0723006, Final residual = 0.00626113, No Iterations 9
GAMG:  Solving for p, Initial residual = 0.029202, Final residual = 0.000218578, No Iterations 4
time step continuity errors : sum local = 0.000469117, global = -1.70219e-05, cumulative = 0.000100303
smoothSolver:  Solving for omega, Initial residual = 0.000489274, Final residual = 4.24775e-05, No Iterations 3
smoothSolver:  Solving for k, Initial residual = 0.0055806, Final residual = 0.00029366, No Iterations 4
ExecutionTime = 28.71 s  ClockTime = 29 s

forceCoeffs forceCoeffs1 write:
    Cm    = 0.174348
    Cd    = 0.422497
    Cl    = 0.0313645
    Cl(f) = 0.19003
    Cl(r) = -0.158666

Time = 28

smoothSolver:  Solving for Ux, Initial residual = 0.00372296, Final residual = 0.000343806, No Iterations 9
smoothSolver:  Solving for Uy, Initial residual = 0.0828104, Final residual = 0.00706396, No Iterations 9
smoothSolver:  Solving for Uz, Initial residual = 0.0689325, Final residual = 0.00605192, No Iterations 9
GAMG:  Solving for p, Initial residual = 0.0284485, Final residual = 0.000216771, No Iterations 4
time step continuity errors : sum local = 0.000452568, global = -2.21401e-05, cumulative = 7.81632e-05
smoothSolver:  Solving for omega, Initial residual = 0.000468107, Final residual = 4.0534e-05, No Iterations 3
smoothSolver:  Solving for k, Initial residual = 0.00553922, Final residual = 0.000291369, No Iterations 4
ExecutionTime = 29.75 s  ClockTime = 30 s

forceCoeffs forceCoeffs1 write:
    Cm    = 0.172867
    Cd    = 0.420654
    Cl    = 0.0355143
    Cl(f) = 0.190624
    Cl(r) = -0.155109

Time = 29

smoothSolver:  Solving for Ux, Initial residual = 0.00360473, Final residual = 0.000335317, No Iterations 9
smoothSolver:  Solving for Uy, Initial residual = 0.0787615, Final residual = 0.00682526, No Iterations 9
smoothSolver:  Solving for Uz, Initial residual = 0.0658438, Final residual = 0.00584077, No Iterations 9
GAMG:  Solving for p, Initial residual = 0.0278376, Final residual = 0.000217149, No Iterations 4
time step continuity errors : sum local = 0.000441264, global = -2.32564e-05, cumulative = 5.49068e-05
smoothSolver:  Solving for omega, Initial residual = 0.000449825, Final residual = 3.89275e-05, No Iterations 3
smoothSolver:  Solving for k, Initial residual = 0.00550612, Final residual = 0.000289361, No Iterations 4
ExecutionTime = 30.8 s  ClockTime = 31 s

forceCoeffs forceCoeffs1 write:
    Cm    = 0.171288
    Cd    = 0.417893
    Cl    = 0.0404252
    Cl(f) = 0.191501
    Cl(r) = -0.151076

Time = 30

smoothSolver:  Solving for Ux, Initial residual = 0.0034913, Final residual = 0.000324746, No Iterations 9
smoothSolver:  Solving for Uy, Initial residual = 0.0756201, Final residual = 0.00666375, No Iterations 9
smoothSolver:  Solving for Uz, Initial residual = 0.0634632, Final residual = 0.00566874, No Iterations 9
GAMG:  Solving for p, Initial residual = 0.0273807, Final residual = 0.000220114, No Iterations 4
time step continuity errors : sum local = 0.000435288, global = -2.4065e-05, cumulative = 3.08418e-05
smoothSolver:  Solving for omega, Initial residual = 0.000436852, Final residual = 3.7607e-05, No Iterations 3
smoothSolver:  Solving for k, Initial residual = 0.00548397, Final residual = 0.000287721, No Iterations 4
ExecutionTime = 31.84 s  ClockTime = 32 s

forceCoeffs forceCoeffs1 write:
    Cm    = 0.169786
    Cd    = 0.414465
    Cl    = 0.0453538
    Cl(f) = 0.192463
    Cl(r) = -0.14711

Time = 31

smoothSolver:  Solving for Ux, Initial residual = 0.00338171, Final residual = 0.000313054, No Iterations 9
smoothSolver:  Solving for Uy, Initial residual = 0.073308, Final residual = 0.00652644, No Iterations 9
smoothSolver:  Solving for Uz, Initial residual = 0.0615384, Final residual = 0.00552557, No Iterations 9
GAMG:  Solving for p, Initial residual = 0.0269035, Final residual = 0.000222378, No Iterations 4
time step continuity errors : sum local = 0.000428118, global = -2.71662e-05, cumulative = 3.67564e-06
smoothSolver:  Solving for omega, Initial residual = 0.000420472, Final residual = 3.62387e-05, No Iterations 3
smoothSolver:  Solving for k, Initial residual = 0.00541843, Final residual = 0.000285189, No Iterations 4
ExecutionTime = 32.88 s  ClockTime = 33 s

forceCoeffs forceCoeffs1 write:
    Cm    = 0.169571
    Cd    = 0.411687
    Cl    = 0.0479598
    Cl(f) = 0.193551
    Cl(r) = -0.145591

Time = 32

smoothSolver:  Solving for Ux, Initial residual = 0.00326287, Final residual = 0.000302096, No Iterations 9
smoothSolver:  Solving for Uy, Initial residual = 0.0713881, Final residual = 0.00635649, No Iterations 9
smoothSolver:  Solving for Uz, Initial residual = 0.0595706, Final residual = 0.00534392, No Iterations 9
GAMG:  Solving for p, Initial residual = 0.0264393, Final residual = 0.000222641, No Iterations 4
time step continuity errors : sum local = 0.000419016, global = -2.94729e-05, cumulative = -2.57972e-05
smoothSolver:  Solving for omega, Initial residual = 0.000401503, Final residual = 3.50304e-05, No Iterations 3
smoothSolver:  Solving for k, Initial residual = 0.00533907, Final residual = 0.000283043, No Iterations 4
ExecutionTime = 33.93 s  ClockTime = 34 s

forceCoeffs forceCoeffs1 write:
    Cm    = 0.169814
    Cd    = 0.40979
    Cl    = 0.050177
    Cl(f) = 0.194903
    Cl(r) = -0.144726

Time = 33

smoothSolver:  Solving for Ux, Initial residual = 0.00314498, Final residual = 0.000291829, No Iterations 9
smoothSolver:  Solving for Uy, Initial residual = 0.0696078, Final residual = 0.00616835, No Iterations 9
smoothSolver:  Solving for Uz, Initial residual = 0.0574181, Final residual = 0.00514196, No Iterations 9
GAMG:  Solving for p, Initial residual = 0.0258698, Final residual = 0.000216793, No Iterations 4
time step continuity errors : sum local = 0.000399644, global = -2.83617e-05, cumulative = -5.41589e-05
smoothSolver:  Solving for omega, Initial residual = 0.000386456, Final residual = 3.39138e-05, No Iterations 3
smoothSolver:  Solving for k, Initial residual = 0.00527269, Final residual = 0.000280067, No Iterations 4
ExecutionTime = 34.97 s  ClockTime = 35 s

forceCoeffs forceCoeffs1 write:
    Cm    = 0.169917
    Cd    = 0.408236
    Cl    = 0.0529727
    Cl(f) = 0.196404
    Cl(r) = -0.143431

Time = 34

smoothSolver:  Solving for Ux, Initial residual = 0.00302723, Final residual = 0.000282309, No Iterations 9
smoothSolver:  Solving for Uy, Initial residual = 0.0679864, Final residual = 0.00600368, No Iterations 9
smoothSolver:  Solving for Uz, Initial residual = 0.0548748, Final residual = 0.00491108, No Iterations 9
GAMG:  Solving for p, Initial residual = 0.0253435, Final residual = 0.000210701, No Iterations 4
time step continuity errors : sum local = 0.000380626, global = -2.35076e-05, cumulative = -7.76665e-05
smoothSolver:  Solving for omega, Initial residual = 0.000372657, Final residual = 3.29576e-05, No Iterations 3
smoothSolver:  Solving for k, Initial residual = 0.00518026, Final residual = 0.000275796, No Iterations 4
ExecutionTime = 36.03 s  ClockTime = 36 s

forceCoeffs forceCoeffs1 write:
    Cm    = 0.169043
    Cd    = 0.406827
    Cl    = 0.0573684
    Cl(f) = 0.197727
    Cl(r) = -0.140358

Time = 35

smoothSolver:  Solving for Ux, Initial residual = 0.00292375, Final residual = 0.000274466, No Iterations 9
smoothSolver:  Solving for Uy, Initial residual = 0.0663841, Final residual = 0.00586619, No Iterations 9
smoothSolver:  Solving for Uz, Initial residual = 0.0519865, Final residual = 0.00468023, No Iterations 9
GAMG:  Solving for p, Initial residual = 0.0247848, Final residual = 0.000206067, No Iterations 4
time step continuity errors : sum local = 0.000365024, global = -1.72308e-05, cumulative = -9.48973e-05
smoothSolver:  Solving for omega, Initial residual = 0.00036041, Final residual = 3.19796e-05, No Iterations 3
smoothSolver:  Solving for k, Initial residual = 0.00508042, Final residual = 0.000270194, No Iterations 4
ExecutionTime = 37.09 s  ClockTime = 37 s

forceCoeffs forceCoeffs1 write:
    Cm    = 0.167051
    Cd    = 0.404679
    Cl    = 0.0615906
    Cl(f) = 0.197847
    Cl(r) = -0.136256

Time = 36

smoothSolver:  Solving for Ux, Initial residual = 0.00283139, Final residual = 0.000267654, No Iterations 9
smoothSolver:  Solving for Uy, Initial residual = 0.064643, Final residual = 0.00573752, No Iterations 9
smoothSolver:  Solving for Uz, Initial residual = 0.0491068, Final residual = 0.00446069, No Iterations 9
GAMG:  Solving for p, Initial residual = 0.0241143, Final residual = 0.000195143, No Iterations 4
time step continuity errors : sum local = 0.000339421, global = -1.23442e-05, cumulative = -0.000107241
smoothSolver:  Solving for omega, Initial residual = 0.000347571, Final residual = 3.10264e-05, No Iterations 3
smoothSolver:  Solving for k, Initial residual = 0.00496075, Final residual = 0.000264293, No Iterations 4
ExecutionTime = 38.14 s  ClockTime = 38 s

forceCoeffs forceCoeffs1 write:
    Cm    = 0.164457
    Cd    = 0.401682
    Cl    = 0.0647572
    Cl(f) = 0.196836
    Cl(r) = -0.132078

Time = 37

smoothSolver:  Solving for Ux, Initial residual = 0.00274174, Final residual = 0.000261392, No Iterations 9
smoothSolver:  Solving for Uy, Initial residual = 0.0625368, Final residual = 0.0056243, No Iterations 9
smoothSolver:  Solving for Uz, Initial residual = 0.0461787, Final residual = 0.00423571, No Iterations 9
GAMG:  Solving for p, Initial residual = 0.0233669, Final residual = 0.000180642, No Iterations 4
time step continuity errors : sum local = 0.000308974, global = -9.28151e-06, cumulative = -0.000116523
smoothSolver:  Solving for omega, Initial residual = 0.00033624, Final residual = 3.01429e-05, No Iterations 3
smoothSolver:  Solving for k, Initial residual = 0.00483295, Final residual = 0.000258819, No Iterations 4
ExecutionTime = 39.2 s  ClockTime = 39 s

forceCoeffs forceCoeffs1 write:
    Cm    = 0.161937
    Cd    = 0.398246
    Cl    = 0.0662666
    Cl(f) = 0.19507
    Cl(r) = -0.128804

Time = 38

smoothSolver:  Solving for Ux, Initial residual = 0.00266051, Final residual = 0.000256834, No Iterations 9
smoothSolver:  Solving for Uy, Initial residual = 0.0602529, Final residual = 0.00550445, No Iterations 9
smoothSolver:  Solving for Uz, Initial residual = 0.0435373, Final residual = 0.00401962, No Iterations 9
GAMG:  Solving for p, Initial residual = 0.0225458, Final residual = 0.000168956, No Iterations 4
time step continuity errors : sum local = 0.000284685, global = -7.66097e-06, cumulative = -0.000124184
smoothSolver:  Solving for omega, Initial residual = 0.000325872, Final residual = 2.93087e-05, No Iterations 3
smoothSolver:  Solving for k, Initial residual = 0.00470378, Final residual = 0.00025262, No Iterations 4
ExecutionTime = 40.27 s  ClockTime = 40 s

forceCoeffs forceCoeffs1 write:
    Cm    = 0.159663
    Cd    = 0.394864
    Cl    = 0.0665142
    Cl(f) = 0.19292
    Cl(r) = -0.126406

Time = 39

smoothSolver:  Solving for Ux, Initial residual = 0.00258536, Final residual = 0.000253067, No Iterations 9
smoothSolver:  Solving for Uy, Initial residual = 0.0580708, Final residual = 0.00535335, No Iterations 9
smoothSolver:  Solving for Uz, Initial residual = 0.0411898, Final residual = 0.0038296, No Iterations 9
GAMG:  Solving for p, Initial residual = 0.0217851, Final residual = 0.000161426, No Iterations 4
time step continuity errors : sum local = 0.000268344, global = -7.05733e-06, cumulative = -0.000131241
smoothSolver:  Solving for omega, Initial residual = 0.000316221, Final residual = 2.85198e-05, No Iterations 3
smoothSolver:  Solving for k, Initial residual = 0.00456942, Final residual = 0.000245317, No Iterations 4
ExecutionTime = 41.31 s  ClockTime = 41 s

forceCoeffs forceCoeffs1 write:
    Cm    = 0.157875
    Cd    = 0.392273
    Cl    = 0.0664285
    Cl(f) = 0.191089
    Cl(r) = -0.124661

Time = 40

smoothSolver:  Solving for Ux, Initial residual = 0.00251048, Final residual = 0.000248581, No Iterations 9
smoothSolver:  Solving for Uy, Initial residual = 0.0556187, Final residual = 0.00516209, No Iterations 9
smoothSolver:  Solving for Uz, Initial residual = 0.0390871, Final residual = 0.00367888, No Iterations 9
GAMG:  Solving for p, Initial residual = 0.0210872, Final residual = 0.000155479, No Iterations 4
time step continuity errors : sum local = 0.000255482, global = -7.58126e-06, cumulative = -0.000138822
smoothSolver:  Solving for omega, Initial residual = 0.000307719, Final residual = 2.77203e-05, No Iterations 3
smoothSolver:  Solving for k, Initial residual = 0.00444367, Final residual = 0.000238649, No Iterations 4
ExecutionTime = 42.37 s  ClockTime = 42 s

forceCoeffs forceCoeffs1 write:
    Cm    = 0.156621
    Cd    = 0.391009
    Cl    = 0.066368
    Cl(f) = 0.189806
    Cl(r) = -0.123437

Time = 41

smoothSolver:  Solving for Ux, Initial residual = 0.00244155, Final residual = 0.000243461, No Iterations 9
smoothSolver:  Solving for Uy, Initial residual = 0.0530416, Final residual = 0.00494267, No Iterations 9
smoothSolver:  Solving for Uz, Initial residual = 0.0372837, Final residual = 0.00355367, No Iterations 9
GAMG:  Solving for p, Initial residual = 0.0204549, Final residual = 0.000151114, No Iterations 4
time step continuity errors : sum local = 0.000245589, global = -9.01919e-06, cumulative = -0.000147842
smoothSolver:  Solving for omega, Initial residual = 0.000298556, Final residual = 2.69764e-05, No Iterations 3
smoothSolver:  Solving for k, Initial residual = 0.0043373, Final residual = 0.000233987, No Iterations 4
ExecutionTime = 43.41 s  ClockTime = 43 s

forceCoeffs forceCoeffs1 write:
    Cm    = 0.155916
    Cd    = 0.390959
    Cl    = 0.0667474
    Cl(f) = 0.189289
    Cl(r) = -0.122542

Time = 42

smoothSolver:  Solving for Ux, Initial residual = 0.00238049, Final residual = 0.000187473, No Iterations 10
smoothSolver:  Solving for Uy, Initial residual = 0.050671, Final residual = 0.00472548, No Iterations 9
smoothSolver:  Solving for Uz, Initial residual = 0.0358077, Final residual = 0.00342871, No Iterations 9
GAMG:  Solving for p, Initial residual = 0.0199853, Final residual = 0.000147837, No Iterations 4
time step continuity errors : sum local = 0.000237805, global = -1.13306e-05, cumulative = -0.000159172
smoothSolver:  Solving for omega, Initial residual = 0.000290464, Final residual = 2.63588e-05, No Iterations 3
smoothSolver:  Solving for k, Initial residual = 0.00424517, Final residual = 0.000229582, No Iterations 4
ExecutionTime = 44.45 s  ClockTime = 44 s

forceCoeffs forceCoeffs1 write:
    Cm    = 0.15532
    Cd    = 0.39135
    Cl    = 0.0679093
    Cl(f) = 0.189275
    Cl(r) = -0.121365

Time = 43

smoothSolver:  Solving for Ux, Initial residual = 0.0023224, Final residual = 0.000183403, No Iterations 10
smoothSolver:  Solving for Uy, Initial residual = 0.0487733, Final residual = 0.00454144, No Iterations 9
smoothSolver:  Solving for Uz, Initial residual = 0.034791, Final residual = 0.00331292, No Iterations 9
GAMG:  Solving for p, Initial residual = 0.0196828, Final residual = 0.000146367, No Iterations 4
time step continuity errors : sum local = 0.000232919, global = -1.32107e-05, cumulative = -0.000172383
smoothSolver:  Solving for omega, Initial residual = 0.000282673, Final residual = 2.56368e-05, No Iterations 3
smoothSolver:  Solving for k, Initial residual = 0.00415286, Final residual = 0.000224853, No Iterations 4
ExecutionTime = 45.48 s  ClockTime = 46 s

forceCoeffs forceCoeffs1 write:
    Cm    = 0.154595
    Cd    = 0.39139
    Cl    = 0.0700007
    Cl(f) = 0.189595
    Cl(r) = -0.119594

Time = 44

smoothSolver:  Solving for Ux, Initial residual = 0.00227729, Final residual = 0.000179241, No Iterations 10
smoothSolver:  Solving for Uy, Initial residual = 0.0473164, Final residual = 0.0043806, No Iterations 9
smoothSolver:  Solving for Uz, Initial residual = 0.0340233, Final residual = 0.00320085, No Iterations 9
GAMG:  Solving for p, Initial residual = 0.019432, Final residual = 0.000145488, No Iterations 4
time step continuity errors : sum local = 0.000229006, global = -1.43033e-05, cumulative = -0.000186686
smoothSolver:  Solving for omega, Initial residual = 0.000274542, Final residual = 2.48684e-05, No Iterations 3
smoothSolver:  Solving for k, Initial residual = 0.00406422, Final residual = 0.000219764, No Iterations 4
ExecutionTime = 46.54 s  ClockTime = 47 s

forceCoeffs forceCoeffs1 write:
    Cm    = 0.153907
    Cd    = 0.391201
    Cl    = 0.072435
    Cl(f) = 0.190124
    Cl(r) = -0.117689

Time = 45

smoothSolver:  Solving for Ux, Initial residual = 0.00223264, Final residual = 0.000175462, No Iterations 10
smoothSolver:  Solving for Uy, Initial residual = 0.0461875, Final residual = 0.00424721, No Iterations 9
smoothSolver:  Solving for Uz, Initial residual = 0.0333398, Final residual = 0.00311783, No Iterations 9
GAMG:  Solving for p, Initial residual = 0.019158, Final residual = 0.000145751, No Iterations 4
time step continuity errors : sum local = 0.000227129, global = -1.40155e-05, cumulative = -0.000200702
smoothSolver:  Solving for omega, Initial residual = 0.000267039, Final residual = 2.42098e-05, No Iterations 3
smoothSolver:  Solving for k, Initial residual = 0.0039886, Final residual = 0.000214609, No Iterations 4
ExecutionTime = 47.58 s  ClockTime = 48 s

forceCoeffs forceCoeffs1 write:
    Cm    = 0.153642
    Cd    = 0.391081
    Cl    = 0.0746949
    Cl(f) = 0.19099
    Cl(r) = -0.116295

Time = 46

smoothSolver:  Solving for Ux, Initial residual = 0.00218436, Final residual = 0.000171806, No Iterations 10
smoothSolver:  Solving for Uy, Initial residual = 0.0453089, Final residual = 0.00415108, No Iterations 9
smoothSolver:  Solving for Uz, Initial residual = 0.032676, Final residual = 0.00304935, No Iterations 9
GAMG:  Solving for p, Initial residual = 0.01882, Final residual = 0.000144199, No Iterations 4
time step continuity errors : sum local = 0.000223115, global = -1.17271e-05, cumulative = -0.000212429
smoothSolver:  Solving for omega, Initial residual = 0.000260386, Final residual = 2.35397e-05, No Iterations 3
smoothSolver:  Solving for k, Initial residual = 0.00391051, Final residual = 0.000209162, No Iterations 4
ExecutionTime = 48.63 s  ClockTime = 49 s

forceCoeffs forceCoeffs1 write:
    Cm    = 0.153856
    Cd    = 0.391417
    Cl    = 0.0764042
    Cl(f) = 0.192058
    Cl(r) = -0.115654

Time = 47

smoothSolver:  Solving for Ux, Initial residual = 0.00213695, Final residual = 0.000168687, No Iterations 10
smoothSolver:  Solving for Uy, Initial residual = 0.044575, Final residual = 0.00409789, No Iterations 9
smoothSolver:  Solving for Uz, Initial residual = 0.0320923, Final residual = 0.00298657, No Iterations 9
GAMG:  Solving for p, Initial residual = 0.0183971, Final residual = 0.000139627, No Iterations 4
time step continuity errors : sum local = 0.000215161, global = -8.35613e-06, cumulative = -0.000220785
smoothSolver:  Solving for omega, Initial residual = 0.000254789, Final residual = 2.29974e-05, No Iterations 3
smoothSolver:  Solving for k, Initial residual = 0.00383777, Final residual = 0.000203725, No Iterations 4
ExecutionTime = 49.66 s  ClockTime = 50 s

forceCoeffs forceCoeffs1 write:
    Cm    = 0.154545
    Cd    = 0.392472
    Cl    = 0.0778463
    Cl(f) = 0.193468
    Cl(r) = -0.115621

Time = 48

smoothSolver:  Solving for Ux, Initial residual = 0.00209509, Final residual = 0.000166009, No Iterations 10
smoothSolver:  Solving for Uy, Initial residual = 0.0439227, Final residual = 0.00407354, No Iterations 9
smoothSolver:  Solving for Uz, Initial residual = 0.0315694, Final residual = 0.00293281, No Iterations 9
GAMG:  Solving for p, Initial residual = 0.017983, Final residual = 0.000133096, No Iterations 4
time step continuity errors : sum local = 0.000204993, global = -4.89334e-06, cumulative = -0.000225678
smoothSolver:  Solving for omega, Initial residual = 0.000250087, Final residual = 2.25324e-05, No Iterations 3
smoothSolver:  Solving for k, Initial residual = 0.00376817, Final residual = 0.00019863, No Iterations 4
ExecutionTime = 50.74 s  ClockTime = 51 s

forceCoeffs forceCoeffs1 write:
    Cm    = 0.155588
    Cd    = 0.394191
    Cl    = 0.0785856
    Cl(f) = 0.194881
    Cl(r) = -0.116296

Time = 49

smoothSolver:  Solving for Ux, Initial residual = 0.00205401, Final residual = 0.000162813, No Iterations 10
smoothSolver:  Solving for Uy, Initial residual = 0.0432556, Final residual = 0.00402311, No Iterations 9
smoothSolver:  Solving for Uz, Initial residual = 0.0310957, Final residual = 0.00287761, No Iterations 9
GAMG:  Solving for p, Initial residual = 0.0176003, Final residual = 0.000128293, No Iterations 4
time step continuity errors : sum local = 0.000197875, global = -3.28979e-06, cumulative = -0.000228968
smoothSolver:  Solving for omega, Initial residual = 0.00024476, Final residual = 2.20728e-05, No Iterations 3
smoothSolver:  Solving for k, Initial residual = 0.00369019, Final residual = 0.000193714, No Iterations 4
ExecutionTime = 51.8 s  ClockTime = 52 s

forceCoeffs forceCoeffs1 write:
    Cm    = 0.156778
    Cd    = 0.396256
    Cl    = 0.0784538
    Cl(f) = 0.196005
    Cl(r) = -0.117551

Time = 50

smoothSolver:  Solving for Ux, Initial residual = 0.00200777, Final residual = 0.000158434, No Iterations 10
smoothSolver:  Solving for Uy, Initial residual = 0.0423557, Final residual = 0.00391864, No Iterations 9
smoothSolver:  Solving for Uz, Initial residual = 0.0306509, Final residual = 0.00281759, No Iterations 9
GAMG:  Solving for p, Initial residual = 0.017237, Final residual = 0.000126531, No Iterations 4
time step continuity errors : sum local = 0.000195674, global = -2.52436e-06, cumulative = -0.000231492
smoothSolver:  Solving for omega, Initial residual = 0.000241061, Final residual = 2.16239e-05, No Iterations 3
smoothSolver:  Solving for k, Initial residual = 0.00361064, Final residual = 0.000188872, No Iterations 4
ExecutionTime = 52.85 s  ClockTime = 53 s

forceCoeffs forceCoeffs1 write:
    Cm    = 0.157915
    Cd    = 0.398393
    Cl    = 0.0774123
    Cl(f) = 0.196621
    Cl(r) = -0.119208

Time = 51

smoothSolver:  Solving for Ux, Initial residual = 0.00195986, Final residual = 0.000195824, No Iterations 9
smoothSolver:  Solving for Uy, Initial residual = 0.0412025, Final residual = 0.00376258, No Iterations 9
smoothSolver:  Solving for Uz, Initial residual = 0.0302704, Final residual = 0.00276365, No Iterations 9
GAMG:  Solving for p, Initial residual = 0.016799, Final residual = 0.000124982, No Iterations 4
time step continuity errors : sum local = 0.000193752, global = -1.74303e-06, cumulative = -0.000233235
smoothSolver:  Solving for omega, Initial residual = 0.000236717, Final residual = 2.11809e-05, No Iterations 3
smoothSolver:  Solving for k, Initial residual = 0.00353702, Final residual = 0.000185275, No Iterations 4
ExecutionTime = 53.88 s  ClockTime = 54 s

forceCoeffs forceCoeffs1 write:
    Cm    = 0.158856
    Cd    = 0.400379
    Cl    = 0.0759697
    Cl(f) = 0.196841
    Cl(r) = -0.120871

Time = 52

smoothSolver:  Solving for Ux, Initial residual = 0.00191403, Final residual = 0.00019048, No Iterations 9
smoothSolver:  Solving for Uy, Initial residual = 0.0396943, Final residual = 0.00357106, No Iterations 9
smoothSolver:  Solving for Uz, Initial residual = 0.0298128, Final residual = 0.00270551, No Iterations 9
GAMG:  Solving for p, Initial residual = 0.0163141, Final residual = 0.000121829, No Iterations 4
time step continuity errors : sum local = 0.000189237, global = -9.99799e-07, cumulative = -0.000234235
smoothSolver:  Solving for omega, Initial residual = 0.000232188, Final residual = 2.0718e-05, No Iterations 3
smoothSolver:  Solving for k, Initial residual = 0.00347003, Final residual = 0.000182186, No Iterations 4
ExecutionTime = 54.92 s  ClockTime = 55 s

forceCoeffs forceCoeffs1 write:
    Cm    = 0.159477
    Cd    = 0.4022
    Cl    = 0.0744738
    Cl(f) = 0.196714
    Cl(r) = -0.12224

Time = 53

smoothSolver:  Solving for Ux, Initial residual = 0.00186097, Final residual = 0.000185635, No Iterations 9
smoothSolver:  Solving for Uy, Initial residual = 0.0381284, Final residual = 0.0034038, No Iterations 9
smoothSolver:  Solving for Uz, Initial residual = 0.0294102, Final residual = 0.00267113, No Iterations 9
GAMG:  Solving for p, Initial residual = 0.0158882, Final residual = 0.000117691, No Iterations 4
time step continuity errors : sum local = 0.000183072, global = -1.58497e-07, cumulative = -0.000234394
smoothSolver:  Solving for omega, Initial residual = 0.000228041, Final residual = 2.03351e-05, No Iterations 3
smoothSolver:  Solving for k, Initial residual = 0.00340603, Final residual = 0.000179299, No Iterations 4
ExecutionTime = 55.96 s  ClockTime = 56 s

forceCoeffs forceCoeffs1 write:
    Cm    = 0.159445
    Cd    = 0.40349
    Cl    = 0.0735577
    Cl(f) = 0.196224
    Cl(r) = -0.122666

Time = 54

smoothSolver:  Solving for Ux, Initial residual = 0.00181441, Final residual = 0.000181345, No Iterations 9
smoothSolver:  Solving for Uy, Initial residual = 0.0367682, Final residual = 0.00327846, No Iterations 9
smoothSolver:  Solving for Uz, Initial residual = 0.0291225, Final residual = 0.0026513, No Iterations 9
GAMG:  Solving for p, Initial residual = 0.0155393, Final residual = 0.000113947, No Iterations 4
time step continuity errors : sum local = 0.000177359, global = 6.13464e-07, cumulative = -0.00023378
smoothSolver:  Solving for omega, Initial residual = 0.000224718, Final residual = 1.99936e-05, No Iterations 3
smoothSolver:  Solving for k, Initial residual = 0.00333179, Final residual = 0.000175891, No Iterations 4
ExecutionTime = 56.99 s  ClockTime = 57 s

forceCoeffs forceCoeffs1 write:
    Cm    = 0.158793
    Cd    = 0.404349
    Cl    = 0.0733585
    Cl(f) = 0.195473
    Cl(r) = -0.122114

Time = 55

smoothSolver:  Solving for Ux, Initial residual = 0.00177441, Final residual = 0.000177247, No Iterations 9
smoothSolver:  Solving for Uy, Initial residual = 0.0356614, Final residual = 0.00319237, No Iterations 9
smoothSolver:  Solving for Uz, Initial residual = 0.0289291, Final residual = 0.00264029, No Iterations 9
GAMG:  Solving for p, Initial residual = 0.0152277, Final residual = 0.000111552, No Iterations 4
time step continuity errors : sum local = 0.000173637, global = 1.16585e-06, cumulative = -0.000232614
smoothSolver:  Solving for omega, Initial residual = 0.000220955, Final residual = 1.95656e-05, No Iterations 3
smoothSolver:  Solving for k, Initial residual = 0.00324766, Final residual = 0.000171424, No Iterations 4
ExecutionTime = 58.05 s  ClockTime = 58 s

forceCoeffs forceCoeffs1 write:
    Cm    = 0.157622
    Cd    = 0.404744
    Cl    = 0.0740217
    Cl(f) = 0.194633
    Cl(r) = -0.120611

Time = 56

smoothSolver:  Solving for Ux, Initial residual = 0.00174491, Final residual = 0.000173413, No Iterations 9
smoothSolver:  Solving for Uy, Initial residual = 0.0348154, Final residual = 0.00313397, No Iterations 9
smoothSolver:  Solving for Uz, Initial residual = 0.0288797, Final residual = 0.00263435, No Iterations 9
GAMG:  Solving for p, Initial residual = 0.0149074, Final residual = 0.000109741, No Iterations 4
time step continuity errors : sum local = 0.000170743, global = 9.22141e-07, cumulative = -0.000231692
smoothSolver:  Solving for omega, Initial residual = 0.000216472, Final residual = 1.90849e-05, No Iterations 3
smoothSolver:  Solving for k, Initial residual = 0.00316913, Final residual = 0.000166301, No Iterations 4
ExecutionTime = 59.09 s  ClockTime = 59 s

forceCoeffs forceCoeffs1 write:
    Cm    = 0.156231
    Cd    = 0.404887
    Cl    = 0.0754017
    Cl(f) = 0.193932
    Cl(r) = -0.11853

Time = 57

smoothSolver:  Solving for Ux, Initial residual = 0.00171746, Final residual = 0.000169871, No Iterations 9
smoothSolver:  Solving for Uy, Initial residual = 0.0342323, Final residual = 0.00308718, No Iterations 9
smoothSolver:  Solving for Uz, Initial residual = 0.028932, Final residual = 0.00263663, No Iterations 9
GAMG:  Solving for p, Initial residual = 0.0145583, Final residual = 0.000107075, No Iterations 4
time step continuity errors : sum local = 0.000166449, global = 5.26656e-07, cumulative = -0.000231166
smoothSolver:  Solving for omega, Initial residual = 0.000212599, Final residual = 1.86592e-05, No Iterations 3
bounding omega, min: -54.078 max: 81192.8 average: 923.024
smoothSolver:  Solving for k, Initial residual = 0.00309946, Final residual = 0.000161353, No Iterations 4
ExecutionTime = 60.14 s  ClockTime = 60 s

forceCoeffs forceCoeffs1 write:
    Cm    = 0.154831
    Cd    = 0.404739
    Cl    = 0.0771703
    Cl(f) = 0.193416
    Cl(r) = -0.116246

Time = 58

smoothSolver:  Solving for Ux, Initial residual = 0.00168839, Final residual = 0.000166298, No Iterations 9
smoothSolver:  Solving for Uy, Initial residual = 0.0338803, Final residual = 0.00304341, No Iterations 9
smoothSolver:  Solving for Uz, Initial residual = 0.0289521, Final residual = 0.00263145, No Iterations 9
GAMG:  Solving for p, Initial residual = 0.0142229, Final residual = 0.00010443, No Iterations 4
time step continuity errors : sum local = 0.000162068, global = 3.62225e-08, cumulative = -0.000231129
smoothSolver:  Solving for omega, Initial residual = 0.000209743, Final residual = 1.83212e-05, No Iterations 3
bounding omega, min: -27.4895 max: 88284.3 average: 924.077
smoothSolver:  Solving for k, Initial residual = 0.00303854, Final residual = 0.000157239, No Iterations 4
ExecutionTime = 61.17 s  ClockTime = 61 s

forceCoeffs forceCoeffs1 write:
    Cm    = 0.153713
    Cd    = 0.404469
    Cl    = 0.0787004
    Cl(f) = 0.193063
    Cl(r) = -0.114363

Time = 59

smoothSolver:  Solving for Ux, Initial residual = 0.00165703, Final residual = 0.000162434, No Iterations 9
smoothSolver:  Solving for Uy, Initial residual = 0.0334636, Final residual = 0.00299856, No Iterations 9
smoothSolver:  Solving for Uz, Initial residual = 0.0289001, Final residual = 0.00261575, No Iterations 9
GAMG:  Solving for p, Initial residual = 0.0139287, Final residual = 0.000103121, No Iterations 4
time step continuity errors : sum local = 0.000159666, global = -1.77635e-07, cumulative = -0.000231307
smoothSolver:  Solving for omega, Initial residual = 0.000207898, Final residual = 1.80925e-05, No Iterations 3
bounding omega, min: -3.12007 max: 82579.3 average: 925.182
smoothSolver:  Solving for k, Initial residual = 0.00298001, Final residual = 0.000153869, No Iterations 4
ExecutionTime = 62.21 s  ClockTime = 62 s

forceCoeffs forceCoeffs1 write:
    Cm    = 0.152997
    Cd    = 0.404072
    Cl    = 0.0795461
    Cl(f) = 0.19277
    Cl(r) = -0.113224

Time = 60

smoothSolver:  Solving for Ux, Initial residual = 0.00162617, Final residual = 0.000159428, No Iterations 9
smoothSolver:  Solving for Uy, Initial residual = 0.0330038, Final residual = 0.00294602, No Iterations 9
smoothSolver:  Solving for Uz, Initial residual = 0.0287141, Final residual = 0.00259485, No Iterations 9
GAMG:  Solving for p, Initial residual = 0.0136645, Final residual = 0.000104431, No Iterations 4
time step continuity errors : sum local = 0.000161162, global = 1.24312e-07, cumulative = -0.000231183
smoothSolver:  Solving for omega, Initial residual = 0.000205184, Final residual = 1.78163e-05, No Iterations 3
smoothSolver:  Solving for k, Initial residual = 0.00292282, Final residual = 0.000150484, No Iterations 4
ExecutionTime = 63.22 s  ClockTime = 63 s

forceCoeffs forceCoeffs1 write:
    Cm    = 0.152894
    Cd    = 0.403886
    Cl    = 0.0796828
    Cl(f) = 0.192735
    Cl(r) = -0.113052

Time = 61

smoothSolver:  Solving for Ux, Initial residual = 0.00159653, Final residual = 0.000157297, No Iterations 9
smoothSolver:  Solving for Uy, Initial residual = 0.0325332, Final residual = 0.00291225, No Iterations 9
smoothSolver:  Solving for Uz, Initial residual = 0.0284187, Final residual = 0.00256712, No Iterations 9
GAMG:  Solving for p, Initial residual = 0.0134669, Final residual = 0.000107111, No Iterations 4
time step continuity errors : sum local = 0.000164706, global = 1.05593e-06, cumulative = -0.000230127
smoothSolver:  Solving for omega, Initial residual = 0.000202131, Final residual = 1.75539e-05, No Iterations 3
smoothSolver:  Solving for k, Initial residual = 0.00285379, Final residual = 0.000146897, No Iterations 4
ExecutionTime = 64.27 s  ClockTime = 64 s

forceCoeffs forceCoeffs1 write:
    Cm    = 0.153288
    Cd    = 0.403942
    Cl    = 0.0792909
    Cl(f) = 0.192933
    Cl(r) = -0.113643

Time = 62

smoothSolver:  Solving for Ux, Initial residual = 0.0015703, Final residual = 0.000155473, No Iterations 9
smoothSolver:  Solving for Uy, Initial residual = 0.032156, Final residual = 0.00289558, No Iterations 9
smoothSolver:  Solving for Uz, Initial residual = 0.0279817, Final residual = 0.00253645, No Iterations 9
GAMG:  Solving for p, Initial residual = 0.0132748, Final residual = 0.000109522, No Iterations 4
time step continuity errors : sum local = 0.000167787, global = 2.53405e-06, cumulative = -0.000227593
smoothSolver:  Solving for omega, Initial residual = 0.000199136, Final residual = 1.71807e-05, No Iterations 3
smoothSolver:  Solving for k, Initial residual = 0.0027846, Final residual = 0.000143094, No Iterations 4
ExecutionTime = 65.3 s  ClockTime = 65 s

forceCoeffs forceCoeffs1 write:
    Cm    = 0.154119
    Cd    = 0.404319
    Cl    = 0.0785841
    Cl(f) = 0.193411
    Cl(r) = -0.114826

Time = 63

smoothSolver:  Solving for Ux, Initial residual = 0.00154554, Final residual = 0.000153666, No Iterations 9
smoothSolver:  Solving for Uy, Initial residual = 0.031869, Final residual = 0.00287412, No Iterations 9
smoothSolver:  Solving for Uz, Initial residual = 0.0276059, Final residual = 0.00250947, No Iterations 9
GAMG:  Solving for p, Initial residual = 0.0130242, Final residual = 0.000110557, No Iterations 4
time step continuity errors : sum local = 0.000168829, global = 4.1034e-06, cumulative = -0.000223489
smoothSolver:  Solving for omega, Initial residual = 0.000195647, Final residual = 1.67754e-05, No Iterations 3
smoothSolver:  Solving for k, Initial residual = 0.00271642, Final residual = 0.000139045, No Iterations 4
ExecutionTime = 66.34 s  ClockTime = 66 s

forceCoeffs forceCoeffs1 write:
    Cm    = 0.155171
    Cd    = 0.404786
    Cl    = 0.0777256
    Cl(f) = 0.194034
    Cl(r) = -0.116309

Time = 64

smoothSolver:  Solving for Ux, Initial residual = 0.0015212, Final residual = 0.000119337, No Iterations 10
smoothSolver:  Solving for Uy, Initial residual = 0.0316669, Final residual = 0.00285064, No Iterations 9
smoothSolver:  Solving for Uz, Initial residual = 0.0272717, Final residual = 0.00247998, No Iterations 9
GAMG:  Solving for p, Initial residual = 0.0127556, Final residual = 0.000109636, No Iterations 4
time step continuity errors : sum local = 0.000166973, global = 5.14867e-06, cumulative = -0.000218341
smoothSolver:  Solving for omega, Initial residual = 0.000192383, Final residual = 1.63933e-05, No Iterations 3
smoothSolver:  Solving for k, Initial residual = 0.00265561, Final residual = 0.000134654, No Iterations 4
ExecutionTime = 67.37 s  ClockTime = 67 s

forceCoeffs forceCoeffs1 write:
    Cm    = 0.156257
    Cd    = 0.405267
    Cl    = 0.0766492
    Cl(f) = 0.194581
    Cl(r) = -0.117932

Time = 65

smoothSolver:  Solving for Ux, Initial residual = 0.00149187, Final residual = 0.000117498, No Iterations 10
smoothSolver:  Solving for Uy, Initial residual = 0.031483, Final residual = 0.00283209, No Iterations 9
smoothSolver:  Solving for Uz, Initial residual = 0.0269028, Final residual = 0.00244995, No Iterations 9
GAMG:  Solving for p, Initial residual = 0.0125083, Final residual = 0.000106506, No Iterations 4
time step continuity errors : sum local = 0.000161919, global = 5.85692e-06, cumulative = -0.000212484
smoothSolver:  Solving for omega, Initial residual = 0.000188922, Final residual = 1.61131e-05, No Iterations 3
smoothSolver:  Solving for k, Initial residual = 0.00259175, Final residual = 0.000130956, No Iterations 4
ExecutionTime = 68.44 s  ClockTime = 68 s

forceCoeffs forceCoeffs1 write:
    Cm    = 0.157065
    Cd    = 0.405601
    Cl    = 0.0754767
    Cl(f) = 0.194803
    Cl(r) = -0.119327

Time = 66

smoothSolver:  Solving for Ux, Initial residual = 0.00146147, Final residual = 0.000115165, No Iterations 10
smoothSolver:  Solving for Uy, Initial residual = 0.0310719, Final residual = 0.0028071, No Iterations 9
smoothSolver:  Solving for Uz, Initial residual = 0.0263867, Final residual = 0.00240841, No Iterations 9
GAMG:  Solving for p, Initial residual = 0.0122779, Final residual = 0.000102473, No Iterations 4
time step continuity errors : sum local = 0.000155629, global = 6.80121e-06, cumulative = -0.000205683
smoothSolver:  Solving for omega, Initial residual = 0.000186911, Final residual = 1.59364e-05, No Iterations 3
smoothSolver:  Solving for k, Initial residual = 0.00254444, Final residual = 0.000127758, No Iterations 4
ExecutionTime = 69.47 s  ClockTime = 70 s

forceCoeffs forceCoeffs1 write:
    Cm    = 0.15753
    Cd    = 0.405861
    Cl    = 0.0743799
    Cl(f) = 0.19472
    Cl(r) = -0.12034

Time = 67

smoothSolver:  Solving for Ux, Initial residual = 0.00143243, Final residual = 0.000112449, No Iterations 10
smoothSolver:  Solving for Uy, Initial residual = 0.0305539, Final residual = 0.00276796, No Iterations 9
smoothSolver:  Solving for Uz, Initial residual = 0.0258528, Final residual = 0.00236253, No Iterations 9
GAMG:  Solving for p, Initial residual = 0.0121036, Final residual = 9.85655e-05, No Iterations 4
time step continuity errors : sum local = 0.000149646, global = 7.61645e-06, cumulative = -0.000198066
smoothSolver:  Solving for omega, Initial residual = 0.000184417, Final residual = 1.5761e-05, No Iterations 3
smoothSolver:  Solving for k, Initial residual = 0.00249441, Final residual = 0.000125271, No Iterations 4
ExecutionTime = 70.54 s  ClockTime = 71 s

forceCoeffs forceCoeffs1 write:
    Cm    = 0.15756
    Cd    = 0.405914
    Cl    = 0.0737077
    Cl(f) = 0.194413
    Cl(r) = -0.120706

Time = 68

smoothSolver:  Solving for Ux, Initial residual = 0.00140546, Final residual = 0.000139903, No Iterations 9
smoothSolver:  Solving for Uy, Initial residual = 0.0299985, Final residual = 0.00271495, No Iterations 9
smoothSolver:  Solving for Uz, Initial residual = 0.025371, Final residual = 0.0023165, No Iterations 9
GAMG:  Solving for p, Initial residual = 0.0119962, Final residual = 9.61904e-05, No Iterations 4
time step continuity errors : sum local = 0.000146075, global = 7.83981e-06, cumulative = -0.000190226
smoothSolver:  Solving for omega, Initial residual = 0.000181781, Final residual = 1.5503e-05, No Iterations 3
smoothSolver:  Solving for k, Initial residual = 0.00244969, Final residual = 0.000122949, No Iterations 4
ExecutionTime = 71.57 s  ClockTime = 72 s

forceCoeffs forceCoeffs1 write:
    Cm    = 0.157235
    Cd    = 0.405903
    Cl    = 0.0736246
    Cl(f) = 0.194048
    Cl(r) = -0.120423

Time = 69

smoothSolver:  Solving for Ux, Initial residual = 0.00138425, Final residual = 0.000137204, No Iterations 9
smoothSolver:  Solving for Uy, Initial residual = 0.0293411, Final residual = 0.00264441, No Iterations 9
smoothSolver:  Solving for Uz, Initial residual = 0.0250055, Final residual = 0.00227138, No Iterations 9
GAMG:  Solving for p, Initial residual = 0.011876, Final residual = 9.58806e-05, No Iterations 4
time step continuity errors : sum local = 0.000145669, global = 7.76024e-06, cumulative = -0.000182466
smoothSolver:  Solving for omega, Initial residual = 0.000178512, Final residual = 1.52568e-05, No Iterations 3
smoothSolver:  Solving for k, Initial residual = 0.0024013, Final residual = 0.000120428, No Iterations 4
ExecutionTime = 72.59 s  ClockTime = 73 s

forceCoeffs forceCoeffs1 write:
    Cm    = 0.156565
    Cd    = 0.405662
    Cl    = 0.0740143
    Cl(f) = 0.193572
    Cl(r) = -0.119558

Time = 70

smoothSolver:  Solving for Ux, Initial residual = 0.0013628, Final residual = 0.000135311, No Iterations 9
smoothSolver:  Solving for Uy, Initial residual = 0.0287411, Final residual = 0.00257342, No Iterations 9
smoothSolver:  Solving for Uz, Initial residual = 0.0248534, Final residual = 0.00224655, No Iterations 9
GAMG:  Solving for p, Initial residual = 0.0117545, Final residual = 9.62828e-05, No Iterations 4
time step continuity errors : sum local = 0.000146364, global = 6.86111e-06, cumulative = -0.000175605
smoothSolver:  Solving for omega, Initial residual = 0.000175601, Final residual = 1.49218e-05, No Iterations 3
smoothSolver:  Solving for k, Initial residual = 0.00235482, Final residual = 0.000117896, No Iterations 4
ExecutionTime = 73.68 s  ClockTime = 74 s

forceCoeffs forceCoeffs1 write:
    Cm    = 0.155611
    Cd    = 0.405137
    Cl    = 0.0747491
    Cl(f) = 0.192986
    Cl(r) = -0.118237

Time = 71

smoothSolver:  Solving for Ux, Initial residual = 0.00134411, Final residual = 0.000134024, No Iterations 9
smoothSolver:  Solving for Uy, Initial residual = 0.0282324, Final residual = 0.00251221, No Iterations 9
smoothSolver:  Solving for Uz, Initial residual = 0.0248354, Final residual = 0.00223839, No Iterations 9
GAMG:  Solving for p, Initial residual = 0.0115959, Final residual = 9.53923e-05, No Iterations 4
time step continuity errors : sum local = 0.000145138, global = 5.30194e-06, cumulative = -0.000170303
smoothSolver:  Solving for omega, Initial residual = 0.000173308, Final residual = 1.46301e-05, No Iterations 3
smoothSolver:  Solving for k, Initial residual = 0.00231229, Final residual = 0.000116093, No Iterations 4
ExecutionTime = 74.72 s  ClockTime = 75 s

forceCoeffs forceCoeffs1 write:
    Cm    = 0.154553
    Cd    = 0.404381
    Cl    = 0.0754198
    Cl(f) = 0.192263
    Cl(r) = -0.116843

Time = 72

smoothSolver:  Solving for Ux, Initial residual = 0.00132785, Final residual = 0.000104278, No Iterations 10
smoothSolver:  Solving for Uy, Initial residual = 0.0277931, Final residual = 0.00245557, No Iterations 9
smoothSolver:  Solving for Uz, Initial residual = 0.0248084, Final residual = 0.00223605, No Iterations 9
GAMG:  Solving for p, Initial residual = 0.0113979, Final residual = 9.3577e-05, No Iterations 4
time step continuity errors : sum local = 0.000142541, global = 3.47012e-06, cumulative = -0.000166833
smoothSolver:  Solving for omega, Initial residual = 0.000172077, Final residual = 1.44529e-05, No Iterations 3
bounding omega, min: -21.6781 max: 87299.8 average: 935.405
smoothSolver:  Solving for k, Initial residual = 0.002275, Final residual = 0.0001149, No Iterations 4
ExecutionTime = 75.79 s  ClockTime = 76 s

forceCoeffs forceCoeffs1 write:
    Cm    = 0.153667
    Cd    = 0.403707
    Cl    = 0.0757585
    Cl(f) = 0.191546
    Cl(r) = -0.115788

Time = 73

smoothSolver:  Solving for Ux, Initial residual = 0.00130946, Final residual = 0.00013076, No Iterations 9
smoothSolver:  Solving for Uy, Initial residual = 0.0274135, Final residual = 0.00241104, No Iterations 9
smoothSolver:  Solving for Uz, Initial residual = 0.0247923, Final residual = 0.00223661, No Iterations 9
GAMG:  Solving for p, Initial residual = 0.0112167, Final residual = 9.1389e-05, No Iterations 4
time step continuity errors : sum local = 0.000139385, global = 1.35229e-06, cumulative = -0.000165481
smoothSolver:  Solving for omega, Initial residual = 0.000169872, Final residual = 1.42649e-05, No Iterations 3
bounding omega, min: -9.0268 max: 80066.8 average: 935.381
smoothSolver:  Solving for k, Initial residual = 0.00223964, Final residual = 0.000114013, No Iterations 4
ExecutionTime = 76.84 s  ClockTime = 77 s

forceCoeffs forceCoeffs1 write:
    Cm    = 0.153113
    Cd    = 0.403229
    Cl    = 0.0755567
    Cl(f) = 0.190891
    Cl(r) = -0.115335

Time = 74

smoothSolver:  Solving for Ux, Initial residual = 0.00129408, Final residual = 0.000128854, No Iterations 9
smoothSolver:  Solving for Uy, Initial residual = 0.0269059, Final residual = 0.00234481, No Iterations 9
smoothSolver:  Solving for Uz, Initial residual = 0.0245639, Final residual = 0.00221355, No Iterations 9
GAMG:  Solving for p, Initial residual = 0.0110681, Final residual = 8.92727e-05, No Iterations 4
time step continuity errors : sum local = 0.000136305, global = -3.56863e-07, cumulative = -0.000165837
smoothSolver:  Solving for omega, Initial residual = 0.000168359, Final residual = 1.41269e-05, No Iterations 3
bounding omega, min: -0.925397 max: 90064.5 average: 936.124
smoothSolver:  Solving for k, Initial residual = 0.00221354, Final residual = 0.000112899, No Iterations 4
ExecutionTime = 77.91 s  ClockTime = 78 s

forceCoeffs forceCoeffs1 write:
    Cm    = 0.153013
    Cd    = 0.403071
    Cl    = 0.074823
    Cl(f) = 0.190424
    Cl(r) = -0.115601

Time = 75

smoothSolver:  Solving for Ux, Initial residual = 0.00127597, Final residual = 0.000126724, No Iterations 9
smoothSolver:  Solving for Uy, Initial residual = 0.0264214, Final residual = 0.00227874, No Iterations 9
smoothSolver:  Solving for Uz, Initial residual = 0.0243017, Final residual = 0.00218613, No Iterations 9
GAMG:  Solving for p, Initial residual = 0.0110142, Final residual = 8.71642e-05, No Iterations 4
time step continuity errors : sum local = 0.000133219, global = -1.4756e-06, cumulative = -0.000167313
smoothSolver:  Solving for omega, Initial residual = 0.000166843, Final residual = 1.40251e-05, No Iterations 3
bounding omega, min: -4.5488 max: 79319.7 average: 935.85
smoothSolver:  Solving for k, Initial residual = 0.0021963, Final residual = 0.000111465, No Iterations 4
ExecutionTime = 78.97 s  ClockTime = 79 s

forceCoeffs forceCoeffs1 write:
    Cm    = 0.153289
    Cd    = 0.403025
    Cl    = 0.0737071
    Cl(f) = 0.190142
    Cl(r) = -0.116435

Time = 76

smoothSolver:  Solving for Ux, Initial residual = 0.00125503, Final residual = 0.000124029, No Iterations 9
smoothSolver:  Solving for Uy, Initial residual = 0.0260237, Final residual = 0.00221727, No Iterations 9
smoothSolver:  Solving for Uz, Initial residual = 0.0240518, Final residual = 0.00216411, No Iterations 9
GAMG:  Solving for p, Initial residual = 0.0109968, Final residual = 8.51646e-05, No Iterations 4
time step continuity errors : sum local = 0.000130313, global = -1.7079e-06, cumulative = -0.000169021
smoothSolver:  Solving for omega, Initial residual = 0.000165133, Final residual = 1.38879e-05, No Iterations 3
smoothSolver:  Solving for k, Initial residual = 0.00217765, Final residual = 0.000110134, No Iterations 4
ExecutionTime = 80.03 s  ClockTime = 80 s

forceCoeffs forceCoeffs1 write:
    Cm    = 0.153745
    Cd    = 0.402965
    Cl    = 0.0724958
    Cl(f) = 0.189993
    Cl(r) = -0.117497

Time = 77

smoothSolver:  Solving for Ux, Initial residual = 0.00123137, Final residual = 0.000120629, No Iterations 9
smoothSolver:  Solving for Uy, Initial residual = 0.0256792, Final residual = 0.00216403, No Iterations 9
smoothSolver:  Solving for Uz, Initial residual = 0.0238025, Final residual = 0.0021491, No Iterations 9
GAMG:  Solving for p, Initial residual = 0.0109666, Final residual = 8.32394e-05, No Iterations 4
time step continuity errors : sum local = 0.000127531, global = -1.08091e-06, cumulative = -0.000170102
smoothSolver:  Solving for omega, Initial residual = 0.000163312, Final residual = 1.3775e-05, No Iterations 3
bounding omega, min: -23.905 max: 78319.9 average: 936.265
smoothSolver:  Solving for k, Initial residual = 0.00215954, Final residual = 0.000108891, No Iterations 4
ExecutionTime = 81.07 s  ClockTime = 81 s

forceCoeffs forceCoeffs1 write:
    Cm    = 0.154223
    Cd    = 0.402806
    Cl    = 0.0715678
    Cl(f) = 0.190007
    Cl(r) = -0.118439

Time = 78

smoothSolver:  Solving for Ux, Initial residual = 0.00120625, Final residual = 0.000116691, No Iterations 9
smoothSolver:  Solving for Uy, Initial residual = 0.0253112, Final residual = 0.00212393, No Iterations 9
smoothSolver:  Solving for Uz, Initial residual = 0.0235562, Final residual = 0.00213192, No Iterations 9
GAMG:  Solving for p, Initial residual = 0.0108828, Final residual = 8.10302e-05, No Iterations 4
time step continuity errors : sum local = 0.000124287, global = 2.21989e-07, cumulative = -0.00016988
smoothSolver:  Solving for omega, Initial residual = 0.000161279, Final residual = 1.36347e-05, No Iterations 3
smoothSolver:  Solving for k, Initial residual = 0.00213542, Final residual = 0.000107818, No Iterations 4
ExecutionTime = 82.18 s  ClockTime = 82 s

forceCoeffs forceCoeffs1 write:
    Cm    = 0.154666
    Cd    = 0.402749
    Cl    = 0.0711707
    Cl(f) = 0.190251
    Cl(r) = -0.119081

Time = 79

smoothSolver:  Solving for Ux, Initial residual = 0.00118139, Final residual = 0.000112986, No Iterations 9
smoothSolver:  Solving for Uy, Initial residual = 0.0248393, Final residual = 0.00208581, No Iterations 9
smoothSolver:  Solving for Uz, Initial residual = 0.0232865, Final residual = 0.00210378, No Iterations 9
GAMG:  Solving for p, Initial residual = 0.0107308, Final residual = 7.92267e-05, No Iterations 4
time step continuity errors : sum local = 0.000121627, global = 1.76638e-06, cumulative = -0.000168113
smoothSolver:  Solving for omega, Initial residual = 0.000159316, Final residual = 1.34418e-05, No Iterations 3
smoothSolver:  Solving for k, Initial residual = 0.00211365, Final residual = 0.000107225, No Iterations 4
ExecutionTime = 83.22 s  ClockTime = 83 s

forceCoeffs forceCoeffs1 write:
    Cm    = 0.154949
    Cd    = 0.402789
    Cl    = 0.0713521
    Cl(f) = 0.190625
    Cl(r) = -0.119273

Time = 80

smoothSolver:  Solving for Ux, Initial residual = 0.00115558, Final residual = 0.000110107, No Iterations 9
smoothSolver:  Solving for Uy, Initial residual = 0.0242824, Final residual = 0.00204461, No Iterations 9
smoothSolver:  Solving for Uz, Initial residual = 0.0230098, Final residual = 0.0020597, No Iterations 9
GAMG:  Solving for p, Initial residual = 0.0105405, Final residual = 7.82496e-05, No Iterations 4
time step continuity errors : sum local = 0.000120202, global = 3.30248e-06, cumulative = -0.000164811
smoothSolver:  Solving for omega, Initial residual = 0.000157141, Final residual = 1.32383e-05, No Iterations 3
smoothSolver:  Solving for k, Initial residual = 0.00209433, Final residual = 0.000106627, No Iterations 4
ExecutionTime = 84.26 s  ClockTime = 84 s

forceCoeffs forceCoeffs1 write:
    Cm    = 0.15493
    Cd    = 0.402791
    Cl    = 0.0718859
    Cl(f) = 0.190873
    Cl(r) = -0.118987

Time = 81

smoothSolver:  Solving for Ux, Initial residual = 0.00112821, Final residual = 0.000108051, No Iterations 9
smoothSolver:  Solving for Uy, Initial residual = 0.0236401, Final residual = 0.00199473, No Iterations 9
smoothSolver:  Solving for Uz, Initial residual = 0.0226775, Final residual = 0.00201005, No Iterations 9
GAMG:  Solving for p, Initial residual = 0.0103659, Final residual = 7.83332e-05, No Iterations 4
time step continuity errors : sum local = 0.000120384, global = 4.79938e-06, cumulative = -0.000160012
smoothSolver:  Solving for omega, Initial residual = 0.000155544, Final residual = 1.307e-05, No Iterations 3
smoothSolver:  Solving for k, Initial residual = 0.0020768, Final residual = 0.000105812, No Iterations 4
ExecutionTime = 85.29 s  ClockTime = 85 s

forceCoeffs forceCoeffs1 write:
    Cm    = 0.154551
    Cd    = 0.402589
    Cl    = 0.0725919
    Cl(f) = 0.190847
    Cl(r) = -0.118255

Time = 82

smoothSolver:  Solving for Ux, Initial residual = 0.00110123, Final residual = 0.000105798, No Iterations 9
smoothSolver:  Solving for Uy, Initial residual = 0.0229996, Final residual = 0.00193389, No Iterations 9
smoothSolver:  Solving for Uz, Initial residual = 0.0223682, Final residual = 0.00196173, No Iterations 9
GAMG:  Solving for p, Initial residual = 0.0102654, Final residual = 7.93513e-05, No Iterations 4
time step continuity errors : sum local = 0.000122006, global = 5.96745e-06, cumulative = -0.000154044
smoothSolver:  Solving for omega, Initial residual = 0.00015402, Final residual = 1.29012e-05, No Iterations 3
smoothSolver:  Solving for k, Initial residual = 0.00205897, Final residual = 0.000104905, No Iterations 4
ExecutionTime = 86.32 s  ClockTime = 86 s

forceCoeffs forceCoeffs1 write:
    Cm    = 0.153906
    Cd    = 0.40227
    Cl    = 0.073409
    Cl(f) = 0.19061
    Cl(r) = -0.117201

Time = 83

smoothSolver:  Solving for Ux, Initial residual = 0.00108007, Final residual = 0.000103301, No Iterations 9
smoothSolver:  Solving for Uy, Initial residual = 0.0224559, Final residual = 0.00187696, No Iterations 9
smoothSolver:  Solving for Uz, Initial residual = 0.022053, Final residual = 0.00192892, No Iterations 9
GAMG:  Solving for p, Initial residual = 0.0102471, Final residual = 8.03131e-05, No Iterations 4
time step continuity errors : sum local = 0.000123533, global = 6.1993e-06, cumulative = -0.000147845
smoothSolver:  Solving for omega, Initial residual = 0.00015239, Final residual = 1.27293e-05, No Iterations 3
smoothSolver:  Solving for k, Initial residual = 0.00204567, Final residual = 0.000104131, No Iterations 4
ExecutionTime = 87.37 s  ClockTime = 87 s

forceCoeffs forceCoeffs1 write:
    Cm    = 0.153229
    Cd    = 0.402034
    Cl    = 0.0742309
    Cl(f) = 0.190345
    Cl(r) = -0.116114

Time = 84

smoothSolver:  Solving for Ux, Initial residual = 0.00106494, Final residual = 0.000101184, No Iterations 9
smoothSolver:  Solving for Uy, Initial residual = 0.0220377, Final residual = 0.00183505, No Iterations 9
smoothSolver:  Solving for Uz, Initial residual = 0.021796, Final residual = 0.00189962, No Iterations 9
GAMG:  Solving for p, Initial residual = 0.010235, Final residual = 8.01533e-05, No Iterations 4
time step continuity errors : sum local = 0.000123299, global = 5.02665e-06, cumulative = -0.000142818
smoothSolver:  Solving for omega, Initial residual = 0.000151686, Final residual = 1.26354e-05, No Iterations 3
smoothSolver:  Solving for k, Initial residual = 0.00203775, Final residual = 0.000103811, No Iterations 4
ExecutionTime = 88.45 s  ClockTime = 89 s

forceCoeffs forceCoeffs1 write:
    Cm    = 0.15276
    Cd    = 0.402025
    Cl    = 0.0749043
    Cl(f) = 0.190212
    Cl(r) = -0.115308

Time = 85

smoothSolver:  Solving for Ux, Initial residual = 0.00105104, Final residual = 9.9111e-05, No Iterations 9
smoothSolver:  Solving for Uy, Initial residual = 0.0217326, Final residual = 0.00180875, No Iterations 9
smoothSolver:  Solving for Uz, Initial residual = 0.0214969, Final residual = 0.00187411, No Iterations 9
GAMG:  Solving for p, Initial residual = 0.0102229, Final residual = 7.94203e-05, No Iterations 4
time step continuity errors : sum local = 0.000122163, global = 2.65377e-06, cumulative = -0.000140164
smoothSolver:  Solving for omega, Initial residual = 0.000151372, Final residual = 1.2529e-05, No Iterations 3
smoothSolver:  Solving for k, Initial residual = 0.00203534, Final residual = 0.00010413, No Iterations 4
ExecutionTime = 89.49 s  ClockTime = 90 s

forceCoeffs forceCoeffs1 write:
    Cm    = 0.152698
    Cd    = 0.40233
    Cl    = 0.0752806
    Cl(f) = 0.190338
    Cl(r) = -0.115058

Time = 86

smoothSolver:  Solving for Ux, Initial residual = 0.00103842, Final residual = 9.74362e-05, No Iterations 9
smoothSolver:  Solving for Uy, Initial residual = 0.021402, Final residual = 0.00178517, No Iterations 9
smoothSolver:  Solving for Uz, Initial residual = 0.0212371, Final residual = 0.00185636, No Iterations 9
GAMG:  Solving for p, Initial residual = 0.0101962, Final residual = 7.93398e-05, No Iterations 4
time step continuity errors : sum local = 0.000121991, global = -1.42236e-07, cumulative = -0.000140307
smoothSolver:  Solving for omega, Initial residual = 0.000150599, Final residual = 1.24506e-05, No Iterations 3
smoothSolver:  Solving for k, Initial residual = 0.00203769, Final residual = 0.000104654, No Iterations 4
ExecutionTime = 90.51 s  ClockTime = 91 s

forceCoeffs forceCoeffs1 write:
    Cm    = 0.153175
    Cd    = 0.403099
    Cl    = 0.0753603
    Cl(f) = 0.190855
    Cl(r) = -0.115495

Time = 87

smoothSolver:  Solving for Ux, Initial residual = 0.00102658, Final residual = 9.59126e-05, No Iterations 9
smoothSolver:  Solving for Uy, Initial residual = 0.0211404, Final residual = 0.00176029, No Iterations 9
smoothSolver:  Solving for Uz, Initial residual = 0.0209468, Final residual = 0.00182885, No Iterations 9
GAMG:  Solving for p, Initial residual = 0.010114, Final residual = 8.03377e-05, No Iterations 4
time step continuity errors : sum local = 0.000123421, global = -2.74999e-06, cumulative = -0.000143057
smoothSolver:  Solving for omega, Initial residual = 0.000150155, Final residual = 1.24261e-05, No Iterations 3
smoothSolver:  Solving for k, Initial residual = 0.00204609, Final residual = 0.000105221, No Iterations 4
ExecutionTime = 91.54 s  ClockTime = 92 s

forceCoeffs forceCoeffs1 write:
    Cm    = 0.154153
    Cd    = 0.404293
    Cl    = 0.0752194
    Cl(f) = 0.191763
    Cl(r) = -0.116544

Time = 88

smoothSolver:  Solving for Ux, Initial residual = 0.00101436, Final residual = 9.44187e-05, No Iterations 9
smoothSolver:  Solving for Uy, Initial residual = 0.0209633, Final residual = 0.00173622, No Iterations 9
smoothSolver:  Solving for Uz, Initial residual = 0.0207363, Final residual = 0.00178808, No Iterations 9
GAMG:  Solving for p, Initial residual = 0.0100197, Final residual = 8.13931e-05, No Iterations 4
time step continuity errors : sum local = 0.000124895, global = -4.40736e-06, cumulative = -0.000147464
smoothSolver:  Solving for omega, Initial residual = 0.000149669, Final residual = 1.23656e-05, No Iterations 3
smoothSolver:  Solving for k, Initial residual = 0.0020585, Final residual = 0.00010575, No Iterations 4
ExecutionTime = 92.56 s  ClockTime = 93 s

forceCoeffs forceCoeffs1 write:
    Cm    = 0.155521
    Cd    = 0.40585
    Cl    = 0.074953
    Cl(f) = 0.192998
    Cl(r) = -0.118045

Time = 89

smoothSolver:  Solving for Ux, Initial residual = 0.00100627, Final residual = 9.32861e-05, No Iterations 9
smoothSolver:  Solving for Uy, Initial residual = 0.0208625, Final residual = 0.00172165, No Iterations 9
smoothSolver:  Solving for Uz, Initial residual = 0.0205725, Final residual = 0.00174585, No Iterations 9
GAMG:  Solving for p, Initial residual = 0.0099993, Final residual = 8.20653e-05, No Iterations 4
time step continuity errors : sum local = 0.000125701, global = -5.35057e-06, cumulative = -0.000152815
smoothSolver:  Solving for omega, Initial residual = 0.000149559, Final residual = 1.23294e-05, No Iterations 3
smoothSolver:  Solving for k, Initial residual = 0.00207832, Final residual = 0.000106364, No Iterations 4
ExecutionTime = 93.58 s  ClockTime = 94 s

forceCoeffs forceCoeffs1 write:
    Cm    = 0.157048
    Cd    = 0.40745
    Cl    = 0.0745371
    Cl(f) = 0.194316
    Cl(r) = -0.119779

Time = 90

smoothSolver:  Solving for Ux, Initial residual = 0.00099732, Final residual = 9.25615e-05, No Iterations 9
smoothSolver:  Solving for Uy, Initial residual = 0.0207942, Final residual = 0.00171448, No Iterations 9
smoothSolver:  Solving for Uz, Initial residual = 0.020413, Final residual = 0.0017124, No Iterations 9
GAMG:  Solving for p, Initial residual = 0.0100667, Final residual = 8.25634e-05, No Iterations 4
time step continuity errors : sum local = 0.000126188, global = -5.82396e-06, cumulative = -0.000158639
smoothSolver:  Solving for omega, Initial residual = 0.000149579, Final residual = 1.23143e-05, No Iterations 3
smoothSolver:  Solving for k, Initial residual = 0.00210054, Final residual = 0.000107059, No Iterations 4
ExecutionTime = 94.62 s  ClockTime = 95 s

forceCoeffs forceCoeffs1 write:
    Cm    = 0.158473
    Cd    = 0.408822
    Cl    = 0.0739049
    Cl(f) = 0.195425
    Cl(r) = -0.12152

Time = 91

smoothSolver:  Solving for Ux, Initial residual = 0.000988, Final residual = 9.26362e-05, No Iterations 9
smoothSolver:  Solving for Uy, Initial residual = 0.0207326, Final residual = 0.00171128, No Iterations 9
smoothSolver:  Solving for Uz, Initial residual = 0.0202623, Final residual = 0.00169997, No Iterations 9
GAMG:  Solving for p, Initial residual = 0.0101529, Final residual = 8.28956e-05, No Iterations 4
time step continuity errors : sum local = 0.000126438, global = -5.91584e-06, cumulative = -0.000164554
smoothSolver:  Solving for omega, Initial residual = 0.000149625, Final residual = 1.23086e-05, No Iterations 3
smoothSolver:  Solving for k, Initial residual = 0.00212073, Final residual = 0.000108154, No Iterations 4
ExecutionTime = 95.67 s  ClockTime = 96 s

forceCoeffs forceCoeffs1 write:
    Cm    = 0.15961
    Cd    = 0.409763
    Cl    = 0.0730388
    Cl(f) = 0.196129
    Cl(r) = -0.123091

Time = 92

smoothSolver:  Solving for Ux, Initial residual = 0.000983418, Final residual = 9.37322e-05, No Iterations 9
smoothSolver:  Solving for Uy, Initial residual = 0.0206618, Final residual = 0.00172027, No Iterations 9
smoothSolver:  Solving for Uz, Initial residual = 0.0201152, Final residual = 0.00170963, No Iterations 9
GAMG:  Solving for p, Initial residual = 0.0101715, Final residual = 8.29438e-05, No Iterations 4
time step continuity errors : sum local = 0.00012634, global = -5.53452e-06, cumulative = -0.000170089
smoothSolver:  Solving for omega, Initial residual = 0.000149345, Final residual = 1.2316e-05, No Iterations 3
bounding omega, min: -41.5188 max: 80231.6 average: 930.844
smoothSolver:  Solving for k, Initial residual = 0.00213994, Final residual = 0.000109419, No Iterations 4
ExecutionTime = 96.74 s  ClockTime = 97 s

forceCoeffs forceCoeffs1 write:
    Cm    = 0.160306
    Cd    = 0.410203
    Cl    = 0.0721452
    Cl(f) = 0.196378
    Cl(r) = -0.124233

Time = 93

smoothSolver:  Solving for Ux, Initial residual = 0.00098423, Final residual = 9.56076e-05, No Iterations 9
smoothSolver:  Solving for Uy, Initial residual = 0.0206991, Final residual = 0.00174129, No Iterations 9
smoothSolver:  Solving for Uz, Initial residual = 0.020022, Final residual = 0.00173067, No Iterations 9
GAMG:  Solving for p, Initial residual = 0.0101049, Final residual = 8.41668e-05, No Iterations 4
time step continuity errors : sum local = 0.000128136, global = -4.67764e-06, cumulative = -0.000174767
smoothSolver:  Solving for omega, Initial residual = 0.000149645, Final residual = 1.24182e-05, No Iterations 3
smoothSolver:  Solving for k, Initial residual = 0.00216026, Final residual = 0.000110988, No Iterations 4
ExecutionTime = 97.81 s  ClockTime = 98 s

forceCoeffs forceCoeffs1 write:
    Cm    = 0.160419
    Cd    = 0.410107
    Cl    = 0.0714998
    Cl(f) = 0.196169
    Cl(r) = -0.124669

Time = 94

smoothSolver:  Solving for Ux, Initial residual = 0.000989037, Final residual = 9.73638e-05, No Iterations 9
smoothSolver:  Solving for Uy, Initial residual = 0.0208208, Final residual = 0.00176468, No Iterations 9
smoothSolver:  Solving for Uz, Initial residual = 0.0199958, Final residual = 0.00175415, No Iterations 9
GAMG:  Solving for p, Initial residual = 0.00998529, Final residual = 8.54489e-05, No Iterations 4
time step continuity errors : sum local = 0.000130071, global = -3.59543e-06, cumulative = -0.000178362
smoothSolver:  Solving for omega, Initial residual = 0.000150902, Final residual = 1.25741e-05, No Iterations 3
bounding omega, min: -30.6172 max: 82051.6 average: 930.64
smoothSolver:  Solving for k, Initial residual = 0.00218892, Final residual = 0.000112697, No Iterations 4
ExecutionTime = 98.91 s  ClockTime = 99 s

forceCoeffs forceCoeffs1 write:
    Cm    = 0.159943
    Cd    = 0.409578
    Cl    = 0.071307
    Cl(f) = 0.195597
    Cl(r) = -0.12429

Time = 95

smoothSolver:  Solving for Ux, Initial residual = 0.000997255, Final residual = 9.83522e-05, No Iterations 9
smoothSolver:  Solving for Uy, Initial residual = 0.0210188, Final residual = 0.00178846, No Iterations 9
smoothSolver:  Solving for Uz, Initial residual = 0.0200237, Final residual = 0.00176698, No Iterations 9
GAMG:  Solving for p, Initial residual = 0.00986895, Final residual = 8.51865e-05, No Iterations 4
time step continuity errors : sum local = 0.000129615, global = -2.75022e-06, cumulative = -0.000181112
smoothSolver:  Solving for omega, Initial residual = 0.000151471, Final residual = 1.2755e-05, No Iterations 3
bounding omega, min: -0.772688 max: 76899.1 average: 930.85
smoothSolver:  Solving for k, Initial residual = 0.00221515, Final residual = 0.000114356, No Iterations 4
ExecutionTime = 99.97 s  ClockTime = 100 s

forceCoeffs forceCoeffs1 write:
    Cm    = 0.159056
    Cd    = 0.408822
    Cl    = 0.0716737
    Cl(f) = 0.194892
    Cl(r) = -0.123219

Time = 96

smoothSolver:  Solving for Ux, Initial residual = 0.00100572, Final residual = 9.85798e-05, No Iterations 9
smoothSolver:  Solving for Uy, Initial residual = 0.0212555, Final residual = 0.0018142, No Iterations 9
smoothSolver:  Solving for Uz, Initial residual = 0.0200418, Final residual = 0.00176656, No Iterations 9
GAMG:  Solving for p, Initial residual = 0.00979218, Final residual = 8.44825e-05, No Iterations 4
time step continuity errors : sum local = 0.000128402, global = -2.3723e-06, cumulative = -0.000183485
smoothSolver:  Solving for omega, Initial residual = 0.000152241, Final residual = 1.28637e-05, No Iterations 3
smoothSolver:  Solving for k, Initial residual = 0.00223504, Final residual = 0.000115731, No Iterations 4
ExecutionTime = 101 s  ClockTime = 101 s

forceCoeffs forceCoeffs1 write:
    Cm    = 0.158145
    Cd    = 0.40819
    Cl    = 0.0724245
    Cl(f) = 0.194358
    Cl(r) = -0.121933

Time = 97

smoothSolver:  Solving for Ux, Initial residual = 0.00101317, Final residual = 9.85857e-05, No Iterations 9
smoothSolver:  Solving for Uy, Initial residual = 0.0214627, Final residual = 0.00183811, No Iterations 9
smoothSolver:  Solving for Uz, Initial residual = 0.0200151, Final residual = 0.00175707, No Iterations 9
GAMG:  Solving for p, Initial residual = 0.00979653, Final residual = 8.45396e-05, No Iterations 4
time step continuity errors : sum local = 0.00012825, global = -2.40282e-06, cumulative = -0.000185887
smoothSolver:  Solving for omega, Initial residual = 0.000151922, Final residual = 1.28415e-05, No Iterations 3
bounding omega, min: -215.777 max: 83161.9 average: 930.99
smoothSolver:  Solving for k, Initial residual = 0.00224726, Final residual = 0.000116488, No Iterations 4
ExecutionTime = 102.08 s  ClockTime = 102 s

forceCoeffs forceCoeffs1 write:
    Cm    = 0.157454
    Cd    = 0.40778
    Cl    = 0.0732053
    Cl(f) = 0.194056
    Cl(r) = -0.120851

Time = 98

smoothSolver:  Solving for Ux, Initial residual = 0.00101693, Final residual = 9.8809e-05, No Iterations 9
smoothSolver:  Solving for Uy, Initial residual = 0.0216256, Final residual = 0.00186075, No Iterations 9
smoothSolver:  Solving for Uz, Initial residual = 0.0199387, Final residual = 0.00174974, No Iterations 9
GAMG:  Solving for p, Initial residual = 0.00985264, Final residual = 8.44006e-05, No Iterations 4
time step continuity errors : sum local = 0.000127718, global = -2.88907e-06, cumulative = -0.000188776
smoothSolver:  Solving for omega, Initial residual = 0.000151166, Final residual = 1.27562e-05, No Iterations 3
smoothSolver:  Solving for k, Initial residual = 0.00226035, Final residual = 0.000116791, No Iterations 4
ExecutionTime = 103.13 s  ClockTime = 103 s

forceCoeffs forceCoeffs1 write:
    Cm    = 0.157101
    Cd    = 0.407569
    Cl    = 0.0738427
    Cl(f) = 0.194022
    Cl(r) = -0.12018

Time = 99

smoothSolver:  Solving for Ux, Initial residual = 0.00101796, Final residual = 9.90697e-05, No Iterations 9
smoothSolver:  Solving for Uy, Initial residual = 0.0217974, Final residual = 0.00188462, No Iterations 9
smoothSolver:  Solving for Uz, Initial residual = 0.0198835, Final residual = 0.00175121, No Iterations 9
GAMG:  Solving for p, Initial residual = 0.00989947, Final residual = 8.37373e-05, No Iterations 4
time step continuity errors : sum local = 0.000126342, global = -3.62497e-06, cumulative = -0.000192401
smoothSolver:  Solving for omega, Initial residual = 0.000150591, Final residual = 1.26529e-05, No Iterations 3
smoothSolver:  Solving for k, Initial residual = 0.00226571, Final residual = 0.000116669, No Iterations 4
ExecutionTime = 104.17 s  ClockTime = 104 s

forceCoeffs forceCoeffs1 write:
    Cm    = 0.157055
    Cd    = 0.407528
    Cl    = 0.0740658
    Cl(f) = 0.194088
    Cl(r) = -0.120023

Time = 100

smoothSolver:  Solving for Ux, Initial residual = 0.00101761, Final residual = 9.917e-05, No Iterations 9
smoothSolver:  Solving for Uy, Initial residual = 0.0219418, Final residual = 0.00190841, No Iterations 9
smoothSolver:  Solving for Uz, Initial residual = 0.0198495, Final residual = 0.00176282, No Iterations 9
GAMG:  Solving for p, Initial residual = 0.00991943, Final residual = 8.33231e-05, No Iterations 4
time step continuity errors : sum local = 0.000125343, global = -4.19028e-06, cumulative = -0.000196592
smoothSolver:  Solving for omega, Initial residual = 0.000149845, Final residual = 1.25497e-05, No Iterations 3
smoothSolver:  Solving for k, Initial residual = 0.00226367, Final residual = 0.000116394, No Iterations 4
ExecutionTime = 105.23 s  ClockTime = 105 s

forceCoeffs forceCoeffs1 write:
    Cm    = 0.157285
    Cd    = 0.407664
    Cl    = 0.0739073
    Cl(f) = 0.194239
    Cl(r) = -0.120331

End

Finalising parallel run
