Cleaning /rds/user/hpcbras1/hpc-work/csd3/cclake-roce-gcc9-ompi3-ucx/openfoam/Openfoam_Mbike_csd3_cclake_roce_gcc9_ompi3_ucx_1792_56 case
Running surfaceFeatureExtract on /rds/user/hpcbras1/hpc-work/csd3/cclake-roce-gcc9-ompi3-ucx/openfoam/Openfoam_Mbike_csd3_cclake_roce_gcc9_ompi3_ucx_1792_56
Running blockMesh on /rds/user/hpcbras1/hpc-work/csd3/cclake-roce-gcc9-ompi3-ucx/openfoam/Openfoam_Mbike_csd3_cclake_roce_gcc9_ompi3_ucx_1792_56
Running decomposePar on /rds/user/hpcbras1/hpc-work/csd3/cclake-roce-gcc9-ompi3-ucx/openfoam/Openfoam_Mbike_csd3_cclake_roce_gcc9_ompi3_ucx_1792_56
Running snappyHexMesh in parallel on /rds/user/hpcbras1/hpc-work/csd3/cclake-roce-gcc9-ompi3-ucx/openfoam/Openfoam_Mbike_csd3_cclake_roce_gcc9_ompi3_ucx_1792_56 using 1792 processes
/*---------------------------------------------------------------------------*\
  =========                 |
  \\      /  F ield         | OpenFOAM: The Open Source CFD Toolbox
   \\    /   O peration     | Website:  https://openfoam.org
    \\  /    A nd           | Version:  7
     \\/     M anipulation  |
\*---------------------------------------------------------------------------*/
Build  : 7
Exec   : /home/hpcbras1/spack/opt/spack/linux-scientific7-skylake_avx512/gcc-9.1.0/openfoam-org-7-dahapwszurcwmfsxldhpukzh3tv4odmy/platforms/linux64GccDPInt32-spack/bin/simpleFoam -parallel
Date   : Oct 14 2020
Time   : 18:20:11
Host   : "cpu-p-288"
PID    : 164554
I/O    : uncollated
Case   : /rds/user/hpcbras1/hpc-work/csd3/cclake-roce-gcc9-ompi3-ucx/openfoam/Openfoam_Mbike_csd3_cclake_roce_gcc9_ompi3_ucx_1792_56
nProcs : 1792
Slaves : 
1791
(
"cpu-p-288.164555"
"cpu-p-288.164556"
"cpu-p-288.164557"
"cpu-p-288.164558"
"cpu-p-288.164559"
"cpu-p-288.164560"
"cpu-p-288.164561"
"cpu-p-288.164562"
"cpu-p-288.164563"
"cpu-p-288.164564"
"cpu-p-288.164565"
"cpu-p-288.164566"
"cpu-p-288.164567"
"cpu-p-288.164568"
"cpu-p-288.164569"
"cpu-p-288.164570"
"cpu-p-288.164571"
"cpu-p-288.164572"
"cpu-p-288.164573"
"cpu-p-288.164574"
"cpu-p-288.164575"
"cpu-p-288.164576"
"cpu-p-288.164577"
"cpu-p-288.164578"
"cpu-p-288.164579"
"cpu-p-288.164580"
"cpu-p-288.164581"
"cpu-p-288.164582"
"cpu-p-288.164583"
"cpu-p-288.164584"
"cpu-p-288.164585"
"cpu-p-288.164586"
"cpu-p-288.164587"
"cpu-p-288.164588"
"cpu-p-288.164589"
"cpu-p-288.164590"
"cpu-p-288.164591"
"cpu-p-288.164592"
"cpu-p-288.164593"
"cpu-p-288.164594"
"cpu-p-288.164595"
"cpu-p-288.164596"
"cpu-p-288.164597"
"cpu-p-288.164598"
"cpu-p-288.164599"
"cpu-p-288.164600"
"cpu-p-288.164601"
"cpu-p-288.164602"
"cpu-p-288.164603"
"cpu-p-288.164604"
"cpu-p-288.164605"
"cpu-p-288.164606"
"cpu-p-288.164607"
"cpu-p-288.164608"
"cpu-p-288.164609"
"cpu-p-289.176861"
"cpu-p-289.176862"
"cpu-p-289.176863"
"cpu-p-289.176864"
"cpu-p-289.176865"
"cpu-p-289.176866"
"cpu-p-289.176867"
"cpu-p-289.176868"
"cpu-p-289.176869"
"cpu-p-289.176870"
"cpu-p-289.176871"
"cpu-p-289.176872"
"cpu-p-289.176873"
"cpu-p-289.176874"
"cpu-p-289.176875"
"cpu-p-289.176876"
"cpu-p-289.176877"
"cpu-p-289.176878"
"cpu-p-289.176879"
"cpu-p-289.176880"
"cpu-p-289.176881"
"cpu-p-289.176882"
"cpu-p-289.176883"
"cpu-p-289.176884"
"cpu-p-289.176885"
"cpu-p-289.176886"
"cpu-p-289.176887"
"cpu-p-289.176888"
"cpu-p-289.176889"
"cpu-p-289.176890"
"cpu-p-289.176891"
"cpu-p-289.176892"
"cpu-p-289.176893"
"cpu-p-289.176894"
"cpu-p-289.176895"
"cpu-p-289.176896"
"cpu-p-289.176897"
"cpu-p-289.176898"
"cpu-p-289.176899"
"cpu-p-289.176900"
"cpu-p-289.176901"
"cpu-p-289.176902"
"cpu-p-289.176903"
"cpu-p-289.176904"
"cpu-p-289.176905"
"cpu-p-289.176906"
"cpu-p-289.176907"
"cpu-p-289.176908"
"cpu-p-289.176909"
"cpu-p-289.176910"
"cpu-p-289.176911"
"cpu-p-289.176912"
"cpu-p-289.176913"
"cpu-p-289.176914"
"cpu-p-289.176915"
"cpu-p-289.176916"
"cpu-p-290.111131"
"cpu-p-290.111132"
"cpu-p-290.111133"
"cpu-p-290.111134"
"cpu-p-290.111135"
"cpu-p-290.111136"
"cpu-p-290.111137"
"cpu-p-290.111138"
"cpu-p-290.111139"
"cpu-p-290.111140"
"cpu-p-290.111141"
"cpu-p-290.111142"
"cpu-p-290.111143"
"cpu-p-290.111144"
"cpu-p-290.111145"
"cpu-p-290.111146"
"cpu-p-290.111147"
"cpu-p-290.111148"
"cpu-p-290.111149"
"cpu-p-290.111150"
"cpu-p-290.111151"
"cpu-p-290.111152"
"cpu-p-290.111153"
"cpu-p-290.111154"
"cpu-p-290.111155"
"cpu-p-290.111156"
"cpu-p-290.111157"
"cpu-p-290.111158"
"cpu-p-290.111159"
"cpu-p-290.111160"
"cpu-p-290.111161"
"cpu-p-290.111162"
"cpu-p-290.111163"
"cpu-p-290.111164"
"cpu-p-290.111165"
"cpu-p-290.111166"
"cpu-p-290.111167"
"cpu-p-290.111168"
"cpu-p-290.111169"
"cpu-p-290.111170"
"cpu-p-290.111171"
"cpu-p-290.111172"
"cpu-p-290.111173"
"cpu-p-290.111174"
"cpu-p-290.111175"
"cpu-p-290.111176"
"cpu-p-290.111177"
"cpu-p-290.111178"
"cpu-p-290.111179"
"cpu-p-290.111180"
"cpu-p-290.111181"
"cpu-p-290.111182"
"cpu-p-290.111183"
"cpu-p-290.111184"
"cpu-p-290.111185"
"cpu-p-290.111186"
"cpu-p-291.8805"
"cpu-p-291.8806"
"cpu-p-291.8807"
"cpu-p-291.8808"
"cpu-p-291.8809"
"cpu-p-291.8810"
"cpu-p-291.8811"
"cpu-p-291.8812"
"cpu-p-291.8813"
"cpu-p-291.8814"
"cpu-p-291.8815"
"cpu-p-291.8816"
"cpu-p-291.8817"
"cpu-p-291.8818"
"cpu-p-291.8819"
"cpu-p-291.8820"
"cpu-p-291.8821"
"cpu-p-291.8822"
"cpu-p-291.8823"
"cpu-p-291.8824"
"cpu-p-291.8825"
"cpu-p-291.8826"
"cpu-p-291.8827"
"cpu-p-291.8828"
"cpu-p-291.8829"
"cpu-p-291.8830"
"cpu-p-291.8831"
"cpu-p-291.8832"
"cpu-p-291.8833"
"cpu-p-291.8834"
"cpu-p-291.8835"
"cpu-p-291.8836"
"cpu-p-291.8837"
"cpu-p-291.8838"
"cpu-p-291.8839"
"cpu-p-291.8840"
"cpu-p-291.8841"
"cpu-p-291.8842"
"cpu-p-291.8843"
"cpu-p-291.8844"
"cpu-p-291.8845"
"cpu-p-291.8846"
"cpu-p-291.8847"
"cpu-p-291.8848"
"cpu-p-291.8849"
"cpu-p-291.8850"
"cpu-p-291.8851"
"cpu-p-291.8852"
"cpu-p-291.8853"
"cpu-p-291.8854"
"cpu-p-291.8855"
"cpu-p-291.8856"
"cpu-p-291.8857"
"cpu-p-291.8858"
"cpu-p-291.8859"
"cpu-p-291.8860"
"cpu-p-292.110073"
"cpu-p-292.110074"
"cpu-p-292.110075"
"cpu-p-292.110076"
"cpu-p-292.110077"
"cpu-p-292.110078"
"cpu-p-292.110079"
"cpu-p-292.110080"
"cpu-p-292.110081"
"cpu-p-292.110082"
"cpu-p-292.110083"
"cpu-p-292.110084"
"cpu-p-292.110085"
"cpu-p-292.110086"
"cpu-p-292.110087"
"cpu-p-292.110088"
"cpu-p-292.110089"
"cpu-p-292.110090"
"cpu-p-292.110091"
"cpu-p-292.110092"
"cpu-p-292.110093"
"cpu-p-292.110094"
"cpu-p-292.110095"
"cpu-p-292.110096"
"cpu-p-292.110097"
"cpu-p-292.110098"
"cpu-p-292.110099"
"cpu-p-292.110100"
"cpu-p-292.110101"
"cpu-p-292.110102"
"cpu-p-292.110103"
"cpu-p-292.110104"
"cpu-p-292.110105"
"cpu-p-292.110106"
"cpu-p-292.110107"
"cpu-p-292.110108"
"cpu-p-292.110109"
"cpu-p-292.110110"
"cpu-p-292.110111"
"cpu-p-292.110112"
"cpu-p-292.110113"
"cpu-p-292.110114"
"cpu-p-292.110115"
"cpu-p-292.110116"
"cpu-p-292.110117"
"cpu-p-292.110118"
"cpu-p-292.110119"
"cpu-p-292.110120"
"cpu-p-292.110121"
"cpu-p-292.110122"
"cpu-p-292.110123"
"cpu-p-292.110124"
"cpu-p-292.110125"
"cpu-p-292.110126"
"cpu-p-292.110127"
"cpu-p-292.110128"
"cpu-p-293.34967"
"cpu-p-293.34968"
"cpu-p-293.34969"
"cpu-p-293.34970"
"cpu-p-293.34971"
"cpu-p-293.34972"
"cpu-p-293.34973"
"cpu-p-293.34974"
"cpu-p-293.34975"
"cpu-p-293.34976"
"cpu-p-293.34977"
"cpu-p-293.34978"
"cpu-p-293.34979"
"cpu-p-293.34980"
"cpu-p-293.34981"
"cpu-p-293.34982"
"cpu-p-293.34983"
"cpu-p-293.34984"
"cpu-p-293.34985"
"cpu-p-293.34986"
"cpu-p-293.34987"
"cpu-p-293.34988"
"cpu-p-293.34989"
"cpu-p-293.34990"
"cpu-p-293.34991"
"cpu-p-293.34992"
"cpu-p-293.34993"
"cpu-p-293.34994"
"cpu-p-293.34995"
"cpu-p-293.34996"
"cpu-p-293.34997"
"cpu-p-293.34998"
"cpu-p-293.34999"
"cpu-p-293.35000"
"cpu-p-293.35001"
"cpu-p-293.35002"
"cpu-p-293.35003"
"cpu-p-293.35004"
"cpu-p-293.35005"
"cpu-p-293.35006"
"cpu-p-293.35007"
"cpu-p-293.35008"
"cpu-p-293.35009"
"cpu-p-293.35010"
"cpu-p-293.35011"
"cpu-p-293.35012"
"cpu-p-293.35013"
"cpu-p-293.35014"
"cpu-p-293.35015"
"cpu-p-293.35016"
"cpu-p-293.35017"
"cpu-p-293.35018"
"cpu-p-293.35019"
"cpu-p-293.35020"
"cpu-p-293.35021"
"cpu-p-293.35022"
"cpu-p-294.86513"
"cpu-p-294.86514"
"cpu-p-294.86515"
"cpu-p-294.86516"
"cpu-p-294.86517"
"cpu-p-294.86518"
"cpu-p-294.86519"
"cpu-p-294.86520"
"cpu-p-294.86521"
"cpu-p-294.86522"
"cpu-p-294.86523"
"cpu-p-294.86524"
"cpu-p-294.86525"
"cpu-p-294.86526"
"cpu-p-294.86527"
"cpu-p-294.86528"
"cpu-p-294.86529"
"cpu-p-294.86530"
"cpu-p-294.86531"
"cpu-p-294.86532"
"cpu-p-294.86533"
"cpu-p-294.86534"
"cpu-p-294.86535"
"cpu-p-294.86536"
"cpu-p-294.86537"
"cpu-p-294.86538"
"cpu-p-294.86539"
"cpu-p-294.86540"
"cpu-p-294.86541"
"cpu-p-294.86542"
"cpu-p-294.86543"
"cpu-p-294.86544"
"cpu-p-294.86545"
"cpu-p-294.86546"
"cpu-p-294.86547"
"cpu-p-294.86548"
"cpu-p-294.86549"
"cpu-p-294.86550"
"cpu-p-294.86551"
"cpu-p-294.86552"
"cpu-p-294.86553"
"cpu-p-294.86554"
"cpu-p-294.86555"
"cpu-p-294.86556"
"cpu-p-294.86557"
"cpu-p-294.86558"
"cpu-p-294.86559"
"cpu-p-294.86560"
"cpu-p-294.86561"
"cpu-p-294.86562"
"cpu-p-294.86563"
"cpu-p-294.86564"
"cpu-p-294.86565"
"cpu-p-294.86566"
"cpu-p-294.86567"
"cpu-p-294.86568"
"cpu-p-312.214021"
"cpu-p-312.214022"
"cpu-p-312.214023"
"cpu-p-312.214024"
"cpu-p-312.214025"
"cpu-p-312.214026"
"cpu-p-312.214027"
"cpu-p-312.214028"
"cpu-p-312.214029"
"cpu-p-312.214030"
"cpu-p-312.214031"
"cpu-p-312.214032"
"cpu-p-312.214033"
"cpu-p-312.214034"
"cpu-p-312.214035"
"cpu-p-312.214036"
"cpu-p-312.214037"
"cpu-p-312.214038"
"cpu-p-312.214039"
"cpu-p-312.214040"
"cpu-p-312.214041"
"cpu-p-312.214042"
"cpu-p-312.214043"
"cpu-p-312.214044"
"cpu-p-312.214045"
"cpu-p-312.214046"
"cpu-p-312.214047"
"cpu-p-312.214048"
"cpu-p-312.214049"
"cpu-p-312.214050"
"cpu-p-312.214051"
"cpu-p-312.214052"
"cpu-p-312.214053"
"cpu-p-312.214054"
"cpu-p-312.214055"
"cpu-p-312.214056"
"cpu-p-312.214057"
"cpu-p-312.214058"
"cpu-p-312.214059"
"cpu-p-312.214060"
"cpu-p-312.214061"
"cpu-p-312.214062"
"cpu-p-312.214063"
"cpu-p-312.214064"
"cpu-p-312.214065"
"cpu-p-312.214066"
"cpu-p-312.214067"
"cpu-p-312.214068"
"cpu-p-312.214069"
"cpu-p-312.214070"
"cpu-p-312.214071"
"cpu-p-312.214072"
"cpu-p-312.214073"
"cpu-p-312.214074"
"cpu-p-312.214075"
"cpu-p-312.214076"
"cpu-p-313.215157"
"cpu-p-313.215158"
"cpu-p-313.215159"
"cpu-p-313.215160"
"cpu-p-313.215161"
"cpu-p-313.215162"
"cpu-p-313.215163"
"cpu-p-313.215164"
"cpu-p-313.215165"
"cpu-p-313.215166"
"cpu-p-313.215167"
"cpu-p-313.215168"
"cpu-p-313.215169"
"cpu-p-313.215170"
"cpu-p-313.215171"
"cpu-p-313.215172"
"cpu-p-313.215173"
"cpu-p-313.215174"
"cpu-p-313.215175"
"cpu-p-313.215176"
"cpu-p-313.215177"
"cpu-p-313.215178"
"cpu-p-313.215179"
"cpu-p-313.215180"
"cpu-p-313.215181"
"cpu-p-313.215182"
"cpu-p-313.215183"
"cpu-p-313.215184"
"cpu-p-313.215185"
"cpu-p-313.215186"
"cpu-p-313.215187"
"cpu-p-313.215188"
"cpu-p-313.215189"
"cpu-p-313.215190"
"cpu-p-313.215191"
"cpu-p-313.215192"
"cpu-p-313.215193"
"cpu-p-313.215194"
"cpu-p-313.215195"
"cpu-p-313.215196"
"cpu-p-313.215197"
"cpu-p-313.215198"
"cpu-p-313.215199"
"cpu-p-313.215200"
"cpu-p-313.215201"
"cpu-p-313.215202"
"cpu-p-313.215203"
"cpu-p-313.215204"
"cpu-p-313.215205"
"cpu-p-313.215206"
"cpu-p-313.215207"
"cpu-p-313.215208"
"cpu-p-313.215209"
"cpu-p-313.215210"
"cpu-p-313.215211"
"cpu-p-313.215212"
"cpu-p-314.119233"
"cpu-p-314.119234"
"cpu-p-314.119235"
"cpu-p-314.119236"
"cpu-p-314.119237"
"cpu-p-314.119238"
"cpu-p-314.119239"
"cpu-p-314.119240"
"cpu-p-314.119241"
"cpu-p-314.119242"
"cpu-p-314.119243"
"cpu-p-314.119244"
"cpu-p-314.119245"
"cpu-p-314.119246"
"cpu-p-314.119247"
"cpu-p-314.119248"
"cpu-p-314.119249"
"cpu-p-314.119250"
"cpu-p-314.119251"
"cpu-p-314.119252"
"cpu-p-314.119253"
"cpu-p-314.119254"
"cpu-p-314.119255"
"cpu-p-314.119256"
"cpu-p-314.119257"
"cpu-p-314.119258"
"cpu-p-314.119259"
"cpu-p-314.119260"
"cpu-p-314.119261"
"cpu-p-314.119262"
"cpu-p-314.119263"
"cpu-p-314.119264"
"cpu-p-314.119265"
"cpu-p-314.119266"
"cpu-p-314.119267"
"cpu-p-314.119268"
"cpu-p-314.119269"
"cpu-p-314.119270"
"cpu-p-314.119271"
"cpu-p-314.119272"
"cpu-p-314.119273"
"cpu-p-314.119274"
"cpu-p-314.119275"
"cpu-p-314.119276"
"cpu-p-314.119277"
"cpu-p-314.119278"
"cpu-p-314.119279"
"cpu-p-314.119280"
"cpu-p-314.119281"
"cpu-p-314.119282"
"cpu-p-314.119283"
"cpu-p-314.119284"
"cpu-p-314.119285"
"cpu-p-314.119286"
"cpu-p-314.119287"
"cpu-p-314.119288"
"cpu-p-315.152416"
"cpu-p-315.152417"
"cpu-p-315.152418"
"cpu-p-315.152419"
"cpu-p-315.152420"
"cpu-p-315.152421"
"cpu-p-315.152422"
"cpu-p-315.152423"
"cpu-p-315.152424"
"cpu-p-315.152425"
"cpu-p-315.152426"
"cpu-p-315.152427"
"cpu-p-315.152428"
"cpu-p-315.152429"
"cpu-p-315.152430"
"cpu-p-315.152431"
"cpu-p-315.152432"
"cpu-p-315.152433"
"cpu-p-315.152434"
"cpu-p-315.152435"
"cpu-p-315.152436"
"cpu-p-315.152437"
"cpu-p-315.152438"
"cpu-p-315.152439"
"cpu-p-315.152440"
"cpu-p-315.152441"
"cpu-p-315.152442"
"cpu-p-315.152443"
"cpu-p-315.152444"
"cpu-p-315.152445"
"cpu-p-315.152446"
"cpu-p-315.152447"
"cpu-p-315.152448"
"cpu-p-315.152449"
"cpu-p-315.152450"
"cpu-p-315.152451"
"cpu-p-315.152452"
"cpu-p-315.152453"
"cpu-p-315.152454"
"cpu-p-315.152455"
"cpu-p-315.152456"
"cpu-p-315.152457"
"cpu-p-315.152458"
"cpu-p-315.152459"
"cpu-p-315.152460"
"cpu-p-315.152461"
"cpu-p-315.152462"
"cpu-p-315.152463"
"cpu-p-315.152464"
"cpu-p-315.152465"
"cpu-p-315.152466"
"cpu-p-315.152467"
"cpu-p-315.152468"
"cpu-p-315.152469"
"cpu-p-315.152470"
"cpu-p-315.152471"
"cpu-p-316.128112"
"cpu-p-316.128113"
"cpu-p-316.128114"
"cpu-p-316.128115"
"cpu-p-316.128116"
"cpu-p-316.128117"
"cpu-p-316.128118"
"cpu-p-316.128119"
"cpu-p-316.128120"
"cpu-p-316.128121"
"cpu-p-316.128122"
"cpu-p-316.128123"
"cpu-p-316.128124"
"cpu-p-316.128125"
"cpu-p-316.128126"
"cpu-p-316.128127"
"cpu-p-316.128128"
"cpu-p-316.128129"
"cpu-p-316.128130"
"cpu-p-316.128131"
"cpu-p-316.128132"
"cpu-p-316.128133"
"cpu-p-316.128134"
"cpu-p-316.128135"
"cpu-p-316.128136"
"cpu-p-316.128137"
"cpu-p-316.128138"
"cpu-p-316.128139"
"cpu-p-316.128140"
"cpu-p-316.128141"
"cpu-p-316.128142"
"cpu-p-316.128143"
"cpu-p-316.128144"
"cpu-p-316.128145"
"cpu-p-316.128146"
"cpu-p-316.128147"
"cpu-p-316.128148"
"cpu-p-316.128149"
"cpu-p-316.128150"
"cpu-p-316.128151"
"cpu-p-316.128152"
"cpu-p-316.128153"
"cpu-p-316.128154"
"cpu-p-316.128155"
"cpu-p-316.128156"
"cpu-p-316.128157"
"cpu-p-316.128158"
"cpu-p-316.128159"
"cpu-p-316.128160"
"cpu-p-316.128161"
"cpu-p-316.128162"
"cpu-p-316.128163"
"cpu-p-316.128164"
"cpu-p-316.128165"
"cpu-p-316.128166"
"cpu-p-316.128167"
"cpu-p-317.124660"
"cpu-p-317.124661"
"cpu-p-317.124662"
"cpu-p-317.124663"
"cpu-p-317.124664"
"cpu-p-317.124665"
"cpu-p-317.124666"
"cpu-p-317.124667"
"cpu-p-317.124668"
"cpu-p-317.124669"
"cpu-p-317.124670"
"cpu-p-317.124671"
"cpu-p-317.124672"
"cpu-p-317.124673"
"cpu-p-317.124674"
"cpu-p-317.124675"
"cpu-p-317.124676"
"cpu-p-317.124677"
"cpu-p-317.124678"
"cpu-p-317.124679"
"cpu-p-317.124680"
"cpu-p-317.124681"
"cpu-p-317.124682"
"cpu-p-317.124683"
"cpu-p-317.124684"
"cpu-p-317.124685"
"cpu-p-317.124686"
"cpu-p-317.124687"
"cpu-p-317.124688"
"cpu-p-317.124689"
"cpu-p-317.124690"
"cpu-p-317.124691"
"cpu-p-317.124692"
"cpu-p-317.124693"
"cpu-p-317.124694"
"cpu-p-317.124695"
"cpu-p-317.124696"
"cpu-p-317.124697"
"cpu-p-317.124698"
"cpu-p-317.124699"
"cpu-p-317.124700"
"cpu-p-317.124701"
"cpu-p-317.124702"
"cpu-p-317.124703"
"cpu-p-317.124704"
"cpu-p-317.124705"
"cpu-p-317.124706"
"cpu-p-317.124707"
"cpu-p-317.124708"
"cpu-p-317.124709"
"cpu-p-317.124710"
"cpu-p-317.124711"
"cpu-p-317.124712"
"cpu-p-317.124713"
"cpu-p-317.124714"
"cpu-p-317.124715"
"cpu-p-318.130666"
"cpu-p-318.130667"
"cpu-p-318.130668"
"cpu-p-318.130669"
"cpu-p-318.130670"
"cpu-p-318.130671"
"cpu-p-318.130672"
"cpu-p-318.130673"
"cpu-p-318.130674"
"cpu-p-318.130675"
"cpu-p-318.130676"
"cpu-p-318.130677"
"cpu-p-318.130678"
"cpu-p-318.130679"
"cpu-p-318.130680"
"cpu-p-318.130681"
"cpu-p-318.130682"
"cpu-p-318.130683"
"cpu-p-318.130684"
"cpu-p-318.130685"
"cpu-p-318.130686"
"cpu-p-318.130687"
"cpu-p-318.130688"
"cpu-p-318.130689"
"cpu-p-318.130690"
"cpu-p-318.130691"
"cpu-p-318.130692"
"cpu-p-318.130693"
"cpu-p-318.130694"
"cpu-p-318.130695"
"cpu-p-318.130696"
"cpu-p-318.130697"
"cpu-p-318.130698"
"cpu-p-318.130699"
"cpu-p-318.130700"
"cpu-p-318.130701"
"cpu-p-318.130702"
"cpu-p-318.130703"
"cpu-p-318.130704"
"cpu-p-318.130705"
"cpu-p-318.130706"
"cpu-p-318.130707"
"cpu-p-318.130708"
"cpu-p-318.130709"
"cpu-p-318.130710"
"cpu-p-318.130711"
"cpu-p-318.130712"
"cpu-p-318.130713"
"cpu-p-318.130714"
"cpu-p-318.130715"
"cpu-p-318.130716"
"cpu-p-318.130717"
"cpu-p-318.130718"
"cpu-p-318.130719"
"cpu-p-318.130720"
"cpu-p-318.130721"
"cpu-p-319.121642"
"cpu-p-319.121643"
"cpu-p-319.121644"
"cpu-p-319.121645"
"cpu-p-319.121646"
"cpu-p-319.121647"
"cpu-p-319.121648"
"cpu-p-319.121649"
"cpu-p-319.121650"
"cpu-p-319.121651"
"cpu-p-319.121652"
"cpu-p-319.121653"
"cpu-p-319.121654"
"cpu-p-319.121655"
"cpu-p-319.121656"
"cpu-p-319.121657"
"cpu-p-319.121658"
"cpu-p-319.121659"
"cpu-p-319.121660"
"cpu-p-319.121661"
"cpu-p-319.121662"
"cpu-p-319.121663"
"cpu-p-319.121664"
"cpu-p-319.121665"
"cpu-p-319.121666"
"cpu-p-319.121667"
"cpu-p-319.121668"
"cpu-p-319.121669"
"cpu-p-319.121670"
"cpu-p-319.121671"
"cpu-p-319.121672"
"cpu-p-319.121673"
"cpu-p-319.121674"
"cpu-p-319.121675"
"cpu-p-319.121676"
"cpu-p-319.121677"
"cpu-p-319.121678"
"cpu-p-319.121679"
"cpu-p-319.121680"
"cpu-p-319.121681"
"cpu-p-319.121682"
"cpu-p-319.121683"
"cpu-p-319.121684"
"cpu-p-319.121685"
"cpu-p-319.121686"
"cpu-p-319.121687"
"cpu-p-319.121688"
"cpu-p-319.121689"
"cpu-p-319.121690"
"cpu-p-319.121691"
"cpu-p-319.121692"
"cpu-p-319.121693"
"cpu-p-319.121694"
"cpu-p-319.121695"
"cpu-p-319.121696"
"cpu-p-319.121697"
"cpu-p-320.127986"
"cpu-p-320.127987"
"cpu-p-320.127988"
"cpu-p-320.127989"
"cpu-p-320.127990"
"cpu-p-320.127991"
"cpu-p-320.127992"
"cpu-p-320.127993"
"cpu-p-320.127994"
"cpu-p-320.127995"
"cpu-p-320.127996"
"cpu-p-320.127997"
"cpu-p-320.127998"
"cpu-p-320.127999"
"cpu-p-320.128000"
"cpu-p-320.128001"
"cpu-p-320.128002"
"cpu-p-320.128003"
"cpu-p-320.128004"
"cpu-p-320.128005"
"cpu-p-320.128006"
"cpu-p-320.128007"
"cpu-p-320.128008"
"cpu-p-320.128009"
"cpu-p-320.128010"
"cpu-p-320.128011"
"cpu-p-320.128012"
"cpu-p-320.128013"
"cpu-p-320.128014"
"cpu-p-320.128015"
"cpu-p-320.128016"
"cpu-p-320.128017"
"cpu-p-320.128018"
"cpu-p-320.128019"
"cpu-p-320.128020"
"cpu-p-320.128021"
"cpu-p-320.128022"
"cpu-p-320.128023"
"cpu-p-320.128024"
"cpu-p-320.128025"
"cpu-p-320.128026"
"cpu-p-320.128027"
"cpu-p-320.128028"
"cpu-p-320.128029"
"cpu-p-320.128030"
"cpu-p-320.128031"
"cpu-p-320.128032"
"cpu-p-320.128033"
"cpu-p-320.128034"
"cpu-p-320.128035"
"cpu-p-320.128036"
"cpu-p-320.128037"
"cpu-p-320.128038"
"cpu-p-320.128039"
"cpu-p-320.128040"
"cpu-p-320.128041"
"cpu-p-321.203053"
"cpu-p-321.203054"
"cpu-p-321.203055"
"cpu-p-321.203056"
"cpu-p-321.203057"
"cpu-p-321.203058"
"cpu-p-321.203059"
"cpu-p-321.203060"
"cpu-p-321.203061"
"cpu-p-321.203062"
"cpu-p-321.203063"
"cpu-p-321.203064"
"cpu-p-321.203065"
"cpu-p-321.203066"
"cpu-p-321.203067"
"cpu-p-321.203068"
"cpu-p-321.203069"
"cpu-p-321.203070"
"cpu-p-321.203071"
"cpu-p-321.203072"
"cpu-p-321.203073"
"cpu-p-321.203074"
"cpu-p-321.203075"
"cpu-p-321.203076"
"cpu-p-321.203077"
"cpu-p-321.203078"
"cpu-p-321.203079"
"cpu-p-321.203080"
"cpu-p-321.203081"
"cpu-p-321.203082"
"cpu-p-321.203083"
"cpu-p-321.203084"
"cpu-p-321.203085"
"cpu-p-321.203086"
"cpu-p-321.203087"
"cpu-p-321.203088"
"cpu-p-321.203089"
"cpu-p-321.203090"
"cpu-p-321.203091"
"cpu-p-321.203092"
"cpu-p-321.203093"
"cpu-p-321.203094"
"cpu-p-321.203095"
"cpu-p-321.203096"
"cpu-p-321.203097"
"cpu-p-321.203098"
"cpu-p-321.203099"
"cpu-p-321.203100"
"cpu-p-321.203101"
"cpu-p-321.203102"
"cpu-p-321.203103"
"cpu-p-321.203104"
"cpu-p-321.203105"
"cpu-p-321.203106"
"cpu-p-321.203107"
"cpu-p-321.203108"
"cpu-p-322.196661"
"cpu-p-322.196662"
"cpu-p-322.196663"
"cpu-p-322.196664"
"cpu-p-322.196665"
"cpu-p-322.196666"
"cpu-p-322.196667"
"cpu-p-322.196668"
"cpu-p-322.196669"
"cpu-p-322.196670"
"cpu-p-322.196671"
"cpu-p-322.196672"
"cpu-p-322.196673"
"cpu-p-322.196674"
"cpu-p-322.196675"
"cpu-p-322.196676"
"cpu-p-322.196677"
"cpu-p-322.196678"
"cpu-p-322.196679"
"cpu-p-322.196680"
"cpu-p-322.196681"
"cpu-p-322.196682"
"cpu-p-322.196683"
"cpu-p-322.196684"
"cpu-p-322.196685"
"cpu-p-322.196686"
"cpu-p-322.196687"
"cpu-p-322.196688"
"cpu-p-322.196689"
"cpu-p-322.196690"
"cpu-p-322.196691"
"cpu-p-322.196692"
"cpu-p-322.196693"
"cpu-p-322.196694"
"cpu-p-322.196695"
"cpu-p-322.196696"
"cpu-p-322.196697"
"cpu-p-322.196698"
"cpu-p-322.196699"
"cpu-p-322.196700"
"cpu-p-322.196701"
"cpu-p-322.196702"
"cpu-p-322.196703"
"cpu-p-322.196704"
"cpu-p-322.196705"
"cpu-p-322.196706"
"cpu-p-322.196707"
"cpu-p-322.196708"
"cpu-p-322.196709"
"cpu-p-322.196710"
"cpu-p-322.196711"
"cpu-p-322.196712"
"cpu-p-322.196713"
"cpu-p-322.196714"
"cpu-p-322.196715"
"cpu-p-322.196716"
"cpu-p-323.200428"
"cpu-p-323.200429"
"cpu-p-323.200430"
"cpu-p-323.200431"
"cpu-p-323.200432"
"cpu-p-323.200433"
"cpu-p-323.200434"
"cpu-p-323.200435"
"cpu-p-323.200436"
"cpu-p-323.200437"
"cpu-p-323.200438"
"cpu-p-323.200439"
"cpu-p-323.200440"
"cpu-p-323.200441"
"cpu-p-323.200442"
"cpu-p-323.200443"
"cpu-p-323.200444"
"cpu-p-323.200445"
"cpu-p-323.200446"
"cpu-p-323.200447"
"cpu-p-323.200448"
"cpu-p-323.200449"
"cpu-p-323.200450"
"cpu-p-323.200451"
"cpu-p-323.200452"
"cpu-p-323.200453"
"cpu-p-323.200454"
"cpu-p-323.200455"
"cpu-p-323.200456"
"cpu-p-323.200457"
"cpu-p-323.200458"
"cpu-p-323.200459"
"cpu-p-323.200460"
"cpu-p-323.200461"
"cpu-p-323.200462"
"cpu-p-323.200463"
"cpu-p-323.200464"
"cpu-p-323.200465"
"cpu-p-323.200466"
"cpu-p-323.200467"
"cpu-p-323.200468"
"cpu-p-323.200469"
"cpu-p-323.200470"
"cpu-p-323.200471"
"cpu-p-323.200472"
"cpu-p-323.200473"
"cpu-p-323.200474"
"cpu-p-323.200475"
"cpu-p-323.200476"
"cpu-p-323.200477"
"cpu-p-323.200478"
"cpu-p-323.200479"
"cpu-p-323.200480"
"cpu-p-323.200481"
"cpu-p-323.200482"
"cpu-p-323.200483"
"cpu-p-324.176728"
"cpu-p-324.176729"
"cpu-p-324.176730"
"cpu-p-324.176731"
"cpu-p-324.176732"
"cpu-p-324.176733"
"cpu-p-324.176734"
"cpu-p-324.176735"
"cpu-p-324.176736"
"cpu-p-324.176737"
"cpu-p-324.176738"
"cpu-p-324.176739"
"cpu-p-324.176740"
"cpu-p-324.176741"
"cpu-p-324.176742"
"cpu-p-324.176743"
"cpu-p-324.176744"
"cpu-p-324.176745"
"cpu-p-324.176746"
"cpu-p-324.176747"
"cpu-p-324.176748"
"cpu-p-324.176749"
"cpu-p-324.176750"
"cpu-p-324.176751"
"cpu-p-324.176752"
"cpu-p-324.176753"
"cpu-p-324.176754"
"cpu-p-324.176755"
"cpu-p-324.176756"
"cpu-p-324.176757"
"cpu-p-324.176758"
"cpu-p-324.176759"
"cpu-p-324.176760"
"cpu-p-324.176761"
"cpu-p-324.176762"
"cpu-p-324.176763"
"cpu-p-324.176764"
"cpu-p-324.176765"
"cpu-p-324.176766"
"cpu-p-324.176767"
"cpu-p-324.176768"
"cpu-p-324.176769"
"cpu-p-324.176770"
"cpu-p-324.176771"
"cpu-p-324.176772"
"cpu-p-324.176773"
"cpu-p-324.176774"
"cpu-p-324.176775"
"cpu-p-324.176776"
"cpu-p-324.176777"
"cpu-p-324.176778"
"cpu-p-324.176779"
"cpu-p-324.176780"
"cpu-p-324.176781"
"cpu-p-324.176782"
"cpu-p-324.176783"
"cpu-p-325.106619"
"cpu-p-325.106620"
"cpu-p-325.106621"
"cpu-p-325.106622"
"cpu-p-325.106623"
"cpu-p-325.106624"
"cpu-p-325.106625"
"cpu-p-325.106626"
"cpu-p-325.106627"
"cpu-p-325.106628"
"cpu-p-325.106629"
"cpu-p-325.106630"
"cpu-p-325.106631"
"cpu-p-325.106632"
"cpu-p-325.106633"
"cpu-p-325.106634"
"cpu-p-325.106635"
"cpu-p-325.106636"
"cpu-p-325.106637"
"cpu-p-325.106638"
"cpu-p-325.106639"
"cpu-p-325.106640"
"cpu-p-325.106641"
"cpu-p-325.106642"
"cpu-p-325.106643"
"cpu-p-325.106644"
"cpu-p-325.106645"
"cpu-p-325.106646"
"cpu-p-325.106647"
"cpu-p-325.106648"
"cpu-p-325.106649"
"cpu-p-325.106650"
"cpu-p-325.106651"
"cpu-p-325.106652"
"cpu-p-325.106653"
"cpu-p-325.106654"
"cpu-p-325.106655"
"cpu-p-325.106656"
"cpu-p-325.106657"
"cpu-p-325.106658"
"cpu-p-325.106659"
"cpu-p-325.106660"
"cpu-p-325.106661"
"cpu-p-325.106662"
"cpu-p-325.106663"
"cpu-p-325.106664"
"cpu-p-325.106665"
"cpu-p-325.106666"
"cpu-p-325.106667"
"cpu-p-325.106668"
"cpu-p-325.106669"
"cpu-p-325.106670"
"cpu-p-325.106671"
"cpu-p-325.106672"
"cpu-p-325.106673"
"cpu-p-325.106674"
"cpu-p-326.70008"
"cpu-p-326.70009"
"cpu-p-326.70010"
"cpu-p-326.70011"
"cpu-p-326.70012"
"cpu-p-326.70013"
"cpu-p-326.70014"
"cpu-p-326.70015"
"cpu-p-326.70016"
"cpu-p-326.70017"
"cpu-p-326.70018"
"cpu-p-326.70019"
"cpu-p-326.70020"
"cpu-p-326.70021"
"cpu-p-326.70022"
"cpu-p-326.70023"
"cpu-p-326.70024"
"cpu-p-326.70025"
"cpu-p-326.70026"
"cpu-p-326.70027"
"cpu-p-326.70028"
"cpu-p-326.70029"
"cpu-p-326.70030"
"cpu-p-326.70031"
"cpu-p-326.70032"
"cpu-p-326.70033"
"cpu-p-326.70034"
"cpu-p-326.70035"
"cpu-p-326.70036"
"cpu-p-326.70037"
"cpu-p-326.70038"
"cpu-p-326.70039"
"cpu-p-326.70040"
"cpu-p-326.70041"
"cpu-p-326.70042"
"cpu-p-326.70043"
"cpu-p-326.70044"
"cpu-p-326.70045"
"cpu-p-326.70046"
"cpu-p-326.70047"
"cpu-p-326.70048"
"cpu-p-326.70049"
"cpu-p-326.70050"
"cpu-p-326.70051"
"cpu-p-326.70052"
"cpu-p-326.70053"
"cpu-p-326.70054"
"cpu-p-326.70055"
"cpu-p-326.70056"
"cpu-p-326.70057"
"cpu-p-326.70058"
"cpu-p-326.70059"
"cpu-p-326.70060"
"cpu-p-326.70061"
"cpu-p-326.70062"
"cpu-p-326.70063"
"cpu-p-327.99567"
"cpu-p-327.99568"
"cpu-p-327.99569"
"cpu-p-327.99570"
"cpu-p-327.99571"
"cpu-p-327.99572"
"cpu-p-327.99573"
"cpu-p-327.99574"
"cpu-p-327.99575"
"cpu-p-327.99576"
"cpu-p-327.99577"
"cpu-p-327.99578"
"cpu-p-327.99579"
"cpu-p-327.99580"
"cpu-p-327.99581"
"cpu-p-327.99582"
"cpu-p-327.99583"
"cpu-p-327.99584"
"cpu-p-327.99585"
"cpu-p-327.99586"
"cpu-p-327.99587"
"cpu-p-327.99588"
"cpu-p-327.99589"
"cpu-p-327.99590"
"cpu-p-327.99591"
"cpu-p-327.99592"
"cpu-p-327.99593"
"cpu-p-327.99594"
"cpu-p-327.99595"
"cpu-p-327.99596"
"cpu-p-327.99597"
"cpu-p-327.99598"
"cpu-p-327.99599"
"cpu-p-327.99600"
"cpu-p-327.99601"
"cpu-p-327.99602"
"cpu-p-327.99603"
"cpu-p-327.99604"
"cpu-p-327.99605"
"cpu-p-327.99606"
"cpu-p-327.99607"
"cpu-p-327.99608"
"cpu-p-327.99609"
"cpu-p-327.99610"
"cpu-p-327.99611"
"cpu-p-327.99612"
"cpu-p-327.99613"
"cpu-p-327.99614"
"cpu-p-327.99615"
"cpu-p-327.99616"
"cpu-p-327.99617"
"cpu-p-327.99618"
"cpu-p-327.99619"
"cpu-p-327.99620"
"cpu-p-327.99621"
"cpu-p-327.99622"
"cpu-p-328.89153"
"cpu-p-328.89154"
"cpu-p-328.89155"
"cpu-p-328.89156"
"cpu-p-328.89157"
"cpu-p-328.89158"
"cpu-p-328.89159"
"cpu-p-328.89160"
"cpu-p-328.89161"
"cpu-p-328.89162"
"cpu-p-328.89163"
"cpu-p-328.89164"
"cpu-p-328.89165"
"cpu-p-328.89166"
"cpu-p-328.89167"
"cpu-p-328.89168"
"cpu-p-328.89169"
"cpu-p-328.89170"
"cpu-p-328.89171"
"cpu-p-328.89172"
"cpu-p-328.89173"
"cpu-p-328.89174"
"cpu-p-328.89175"
"cpu-p-328.89176"
"cpu-p-328.89177"
"cpu-p-328.89178"
"cpu-p-328.89179"
"cpu-p-328.89180"
"cpu-p-328.89181"
"cpu-p-328.89182"
"cpu-p-328.89183"
"cpu-p-328.89184"
"cpu-p-328.89185"
"cpu-p-328.89186"
"cpu-p-328.89187"
"cpu-p-328.89188"
"cpu-p-328.89189"
"cpu-p-328.89190"
"cpu-p-328.89191"
"cpu-p-328.89192"
"cpu-p-328.89193"
"cpu-p-328.89194"
"cpu-p-328.89195"
"cpu-p-328.89196"
"cpu-p-328.89197"
"cpu-p-328.89198"
"cpu-p-328.89199"
"cpu-p-328.89200"
"cpu-p-328.89201"
"cpu-p-328.89202"
"cpu-p-328.89203"
"cpu-p-328.89204"
"cpu-p-328.89205"
"cpu-p-328.89206"
"cpu-p-328.89207"
"cpu-p-328.89208"
"cpu-p-329.108511"
"cpu-p-329.108512"
"cpu-p-329.108513"
"cpu-p-329.108514"
"cpu-p-329.108515"
"cpu-p-329.108516"
"cpu-p-329.108517"
"cpu-p-329.108518"
"cpu-p-329.108519"
"cpu-p-329.108520"
"cpu-p-329.108521"
"cpu-p-329.108522"
"cpu-p-329.108523"
"cpu-p-329.108524"
"cpu-p-329.108525"
"cpu-p-329.108526"
"cpu-p-329.108527"
"cpu-p-329.108528"
"cpu-p-329.108529"
"cpu-p-329.108530"
"cpu-p-329.108531"
"cpu-p-329.108532"
"cpu-p-329.108533"
"cpu-p-329.108534"
"cpu-p-329.108535"
"cpu-p-329.108536"
"cpu-p-329.108537"
"cpu-p-329.108538"
"cpu-p-329.108539"
"cpu-p-329.108540"
"cpu-p-329.108541"
"cpu-p-329.108542"
"cpu-p-329.108543"
"cpu-p-329.108544"
"cpu-p-329.108545"
"cpu-p-329.108546"
"cpu-p-329.108547"
"cpu-p-329.108548"
"cpu-p-329.108549"
"cpu-p-329.108550"
"cpu-p-329.108551"
"cpu-p-329.108552"
"cpu-p-329.108553"
"cpu-p-329.108554"
"cpu-p-329.108555"
"cpu-p-329.108556"
"cpu-p-329.108557"
"cpu-p-329.108558"
"cpu-p-329.108559"
"cpu-p-329.108560"
"cpu-p-329.108561"
"cpu-p-329.108562"
"cpu-p-329.108563"
"cpu-p-329.108564"
"cpu-p-329.108565"
"cpu-p-329.108566"
"cpu-p-330.104681"
"cpu-p-330.104682"
"cpu-p-330.104683"
"cpu-p-330.104684"
"cpu-p-330.104685"
"cpu-p-330.104686"
"cpu-p-330.104687"
"cpu-p-330.104688"
"cpu-p-330.104689"
"cpu-p-330.104690"
"cpu-p-330.104691"
"cpu-p-330.104692"
"cpu-p-330.104693"
"cpu-p-330.104694"
"cpu-p-330.104695"
"cpu-p-330.104696"
"cpu-p-330.104697"
"cpu-p-330.104698"
"cpu-p-330.104699"
"cpu-p-330.104700"
"cpu-p-330.104701"
"cpu-p-330.104702"
"cpu-p-330.104703"
"cpu-p-330.104704"
"cpu-p-330.104705"
"cpu-p-330.104706"
"cpu-p-330.104707"
"cpu-p-330.104708"
"cpu-p-330.104709"
"cpu-p-330.104710"
"cpu-p-330.104711"
"cpu-p-330.104712"
"cpu-p-330.104713"
"cpu-p-330.104714"
"cpu-p-330.104715"
"cpu-p-330.104716"
"cpu-p-330.104717"
"cpu-p-330.104718"
"cpu-p-330.104719"
"cpu-p-330.104720"
"cpu-p-330.104721"
"cpu-p-330.104722"
"cpu-p-330.104723"
"cpu-p-330.104724"
"cpu-p-330.104725"
"cpu-p-330.104726"
"cpu-p-330.104727"
"cpu-p-330.104728"
"cpu-p-330.104729"
"cpu-p-330.104730"
"cpu-p-330.104731"
"cpu-p-330.104732"
"cpu-p-330.104733"
"cpu-p-330.104734"
"cpu-p-330.104735"
"cpu-p-330.104736"
"cpu-p-331.95055"
"cpu-p-331.95056"
"cpu-p-331.95057"
"cpu-p-331.95058"
"cpu-p-331.95059"
"cpu-p-331.95060"
"cpu-p-331.95061"
"cpu-p-331.95062"
"cpu-p-331.95063"
"cpu-p-331.95064"
"cpu-p-331.95065"
"cpu-p-331.95066"
"cpu-p-331.95067"
"cpu-p-331.95068"
"cpu-p-331.95069"
"cpu-p-331.95070"
"cpu-p-331.95071"
"cpu-p-331.95072"
"cpu-p-331.95073"
"cpu-p-331.95074"
"cpu-p-331.95075"
"cpu-p-331.95076"
"cpu-p-331.95077"
"cpu-p-331.95078"
"cpu-p-331.95079"
"cpu-p-331.95080"
"cpu-p-331.95081"
"cpu-p-331.95082"
"cpu-p-331.95083"
"cpu-p-331.95084"
"cpu-p-331.95085"
"cpu-p-331.95086"
"cpu-p-331.95087"
"cpu-p-331.95088"
"cpu-p-331.95089"
"cpu-p-331.95090"
"cpu-p-331.95091"
"cpu-p-331.95092"
"cpu-p-331.95093"
"cpu-p-331.95094"
"cpu-p-331.95095"
"cpu-p-331.95096"
"cpu-p-331.95097"
"cpu-p-331.95098"
"cpu-p-331.95099"
"cpu-p-331.95100"
"cpu-p-331.95101"
"cpu-p-331.95102"
"cpu-p-331.95103"
"cpu-p-331.95104"
"cpu-p-331.95105"
"cpu-p-331.95106"
"cpu-p-331.95107"
"cpu-p-331.95108"
"cpu-p-331.95109"
"cpu-p-331.95110"
"cpu-p-332.104606"
"cpu-p-332.104607"
"cpu-p-332.104608"
"cpu-p-332.104609"
"cpu-p-332.104610"
"cpu-p-332.104611"
"cpu-p-332.104612"
"cpu-p-332.104613"
"cpu-p-332.104614"
"cpu-p-332.104615"
"cpu-p-332.104616"
"cpu-p-332.104617"
"cpu-p-332.104618"
"cpu-p-332.104619"
"cpu-p-332.104620"
"cpu-p-332.104621"
"cpu-p-332.104622"
"cpu-p-332.104623"
"cpu-p-332.104624"
"cpu-p-332.104625"
"cpu-p-332.104626"
"cpu-p-332.104627"
"cpu-p-332.104628"
"cpu-p-332.104629"
"cpu-p-332.104630"
"cpu-p-332.104631"
"cpu-p-332.104632"
"cpu-p-332.104633"
"cpu-p-332.104634"
"cpu-p-332.104635"
"cpu-p-332.104636"
"cpu-p-332.104637"
"cpu-p-332.104638"
"cpu-p-332.104639"
"cpu-p-332.104640"
"cpu-p-332.104641"
"cpu-p-332.104642"
"cpu-p-332.104643"
"cpu-p-332.104644"
"cpu-p-332.104645"
"cpu-p-332.104646"
"cpu-p-332.104647"
"cpu-p-332.104648"
"cpu-p-332.104649"
"cpu-p-332.104650"
"cpu-p-332.104651"
"cpu-p-332.104652"
"cpu-p-332.104653"
"cpu-p-332.104654"
"cpu-p-332.104655"
"cpu-p-332.104656"
"cpu-p-332.104657"
"cpu-p-332.104658"
"cpu-p-332.104659"
"cpu-p-332.104660"
"cpu-p-332.104661"
"cpu-p-333.115354"
"cpu-p-333.115355"
"cpu-p-333.115356"
"cpu-p-333.115357"
"cpu-p-333.115358"
"cpu-p-333.115359"
"cpu-p-333.115360"
"cpu-p-333.115361"
"cpu-p-333.115362"
"cpu-p-333.115363"
"cpu-p-333.115364"
"cpu-p-333.115365"
"cpu-p-333.115366"
"cpu-p-333.115367"
"cpu-p-333.115368"
"cpu-p-333.115369"
"cpu-p-333.115370"
"cpu-p-333.115371"
"cpu-p-333.115372"
"cpu-p-333.115373"
"cpu-p-333.115374"
"cpu-p-333.115375"
"cpu-p-333.115376"
"cpu-p-333.115377"
"cpu-p-333.115378"
"cpu-p-333.115379"
"cpu-p-333.115380"
"cpu-p-333.115381"
"cpu-p-333.115382"
"cpu-p-333.115383"
"cpu-p-333.115384"
"cpu-p-333.115385"
"cpu-p-333.115386"
"cpu-p-333.115387"
"cpu-p-333.115388"
"cpu-p-333.115389"
"cpu-p-333.115390"
"cpu-p-333.115391"
"cpu-p-333.115392"
"cpu-p-333.115393"
"cpu-p-333.115394"
"cpu-p-333.115395"
"cpu-p-333.115396"
"cpu-p-333.115397"
"cpu-p-333.115398"
"cpu-p-333.115399"
"cpu-p-333.115400"
"cpu-p-333.115401"
"cpu-p-333.115402"
"cpu-p-333.115403"
"cpu-p-333.115404"
"cpu-p-333.115405"
"cpu-p-333.115406"
"cpu-p-333.115407"
"cpu-p-333.115408"
"cpu-p-333.115409"
"cpu-p-334.103252"
"cpu-p-334.103253"
"cpu-p-334.103254"
"cpu-p-334.103255"
"cpu-p-334.103256"
"cpu-p-334.103257"
"cpu-p-334.103258"
"cpu-p-334.103259"
"cpu-p-334.103260"
"cpu-p-334.103261"
"cpu-p-334.103262"
"cpu-p-334.103263"
"cpu-p-334.103264"
"cpu-p-334.103265"
"cpu-p-334.103266"
"cpu-p-334.103267"
"cpu-p-334.103268"
"cpu-p-334.103269"
"cpu-p-334.103270"
"cpu-p-334.103271"
"cpu-p-334.103272"
"cpu-p-334.103273"
"cpu-p-334.103274"
"cpu-p-334.103275"
"cpu-p-334.103276"
"cpu-p-334.103277"
"cpu-p-334.103278"
"cpu-p-334.103279"
"cpu-p-334.103280"
"cpu-p-334.103281"
"cpu-p-334.103282"
"cpu-p-334.103283"
"cpu-p-334.103284"
"cpu-p-334.103285"
"cpu-p-334.103286"
"cpu-p-334.103287"
"cpu-p-334.103288"
"cpu-p-334.103289"
"cpu-p-334.103290"
"cpu-p-334.103291"
"cpu-p-334.103292"
"cpu-p-334.103293"
"cpu-p-334.103294"
"cpu-p-334.103295"
"cpu-p-334.103296"
"cpu-p-334.103297"
"cpu-p-334.103298"
"cpu-p-334.103299"
"cpu-p-334.103300"
"cpu-p-334.103301"
"cpu-p-334.103302"
"cpu-p-334.103303"
"cpu-p-334.103304"
"cpu-p-334.103305"
"cpu-p-334.103306"
"cpu-p-334.103307"
"cpu-p-335.111337"
"cpu-p-335.111338"
"cpu-p-335.111339"
"cpu-p-335.111340"
"cpu-p-335.111341"
"cpu-p-335.111342"
"cpu-p-335.111343"
"cpu-p-335.111344"
"cpu-p-335.111345"
"cpu-p-335.111346"
"cpu-p-335.111347"
"cpu-p-335.111348"
"cpu-p-335.111349"
"cpu-p-335.111350"
"cpu-p-335.111351"
"cpu-p-335.111352"
"cpu-p-335.111353"
"cpu-p-335.111354"
"cpu-p-335.111355"
"cpu-p-335.111356"
"cpu-p-335.111357"
"cpu-p-335.111358"
"cpu-p-335.111359"
"cpu-p-335.111360"
"cpu-p-335.111361"
"cpu-p-335.111362"
"cpu-p-335.111363"
"cpu-p-335.111364"
"cpu-p-335.111365"
"cpu-p-335.111366"
"cpu-p-335.111367"
"cpu-p-335.111368"
"cpu-p-335.111369"
"cpu-p-335.111370"
"cpu-p-335.111371"
"cpu-p-335.111372"
"cpu-p-335.111373"
"cpu-p-335.111374"
"cpu-p-335.111375"
"cpu-p-335.111376"
"cpu-p-335.111377"
"cpu-p-335.111378"
"cpu-p-335.111379"
"cpu-p-335.111380"
"cpu-p-335.111381"
"cpu-p-335.111382"
"cpu-p-335.111383"
"cpu-p-335.111384"
"cpu-p-335.111385"
"cpu-p-335.111386"
"cpu-p-335.111387"
"cpu-p-335.111388"
"cpu-p-335.111389"
"cpu-p-335.111390"
"cpu-p-335.111391"
"cpu-p-335.111392"
"cpu-p-336.104327"
"cpu-p-336.104328"
"cpu-p-336.104329"
"cpu-p-336.104330"
"cpu-p-336.104331"
"cpu-p-336.104332"
"cpu-p-336.104333"
"cpu-p-336.104334"
"cpu-p-336.104335"
"cpu-p-336.104336"
"cpu-p-336.104337"
"cpu-p-336.104338"
"cpu-p-336.104339"
"cpu-p-336.104340"
"cpu-p-336.104341"
"cpu-p-336.104342"
"cpu-p-336.104343"
"cpu-p-336.104344"
"cpu-p-336.104345"
"cpu-p-336.104346"
"cpu-p-336.104347"
"cpu-p-336.104348"
"cpu-p-336.104349"
"cpu-p-336.104350"
"cpu-p-336.104351"
"cpu-p-336.104352"
"cpu-p-336.104353"
"cpu-p-336.104354"
"cpu-p-336.104355"
"cpu-p-336.104356"
"cpu-p-336.104357"
"cpu-p-336.104358"
"cpu-p-336.104359"
"cpu-p-336.104360"
"cpu-p-336.104361"
"cpu-p-336.104362"
"cpu-p-336.104363"
"cpu-p-336.104364"
"cpu-p-336.104365"
"cpu-p-336.104366"
"cpu-p-336.104367"
"cpu-p-336.104368"
"cpu-p-336.104369"
"cpu-p-336.104370"
"cpu-p-336.104371"
"cpu-p-336.104372"
"cpu-p-336.104373"
"cpu-p-336.104374"
"cpu-p-336.104375"
"cpu-p-336.104376"
"cpu-p-336.104377"
"cpu-p-336.104378"
"cpu-p-336.104379"
"cpu-p-336.104380"
"cpu-p-336.104381"
"cpu-p-336.104382"
)

Pstream initialized with:
    floatTransfer      : 0
    nProcsSimpleSum    : 0
    commsType          : nonBlocking
    polling iterations : 0
sigFpe : Enabling floating point exception trapping (FOAM_SIGFPE).
fileModificationChecking : Monitoring run-time modified files using timeStampMaster (fileModificationSkew 10)
allowSystemOperations : Allowing user-supplied system call operations

// * * * * * * * * * * * * * * * * * * * * * * * * * * * * * * * * * * * * * //
Create time

Create mesh for time = 0


SIMPLE: No convergence criteria found

Reading field p

Reading field U

Reading/calculating face flux field phi

Selecting incompressible transport model Newtonian
Selecting turbulence model type RAS
Selecting RAS turbulence model kOmegaSST
Selecting patchDistMethod meshWave
RAS
{
    RASModel        kOmegaSST;
    turbulence      on;
    printCoeffs     on;
    alphaK1         0.85;
    alphaK2         1;
    alphaOmega1     0.5;
    alphaOmega2     0.856;
    gamma1          0.555556;
    gamma2          0.44;
    beta1           0.075;
    beta2           0.0828;
    betaStar        0.09;
    a1              0.31;
    b1              1;
    c1              10;
    F3              false;
}

No MRF models present

No finite volume options present

Starting time loop

Reading surface description:
    yNormal

forces forceCoeffs1:
    Not including porosity effects
forceCoeffs forceCoeffs1:
    Not including porosity effects
Time = 1

smoothSolver:  Solving for Ux, Initial residual = 1, Final residual = 0.0947934, No Iterations 14
smoothSolver:  Solving for Uy, Initial residual = 1, Final residual = 0.0863285, No Iterations 13
smoothSolver:  Solving for Uz, Initial residual = 1, Final residual = 0.0966268, No Iterations 13
GAMG:  Solving for p, Initial residual = 1, Final residual = 0.00898907, No Iterations 6
time step continuity errors : sum local = 0.000636423, global = 4.78122e-06, cumulative = 4.78122e-06
smoothSolver:  Solving for omega, Initial residual = 0.0280874, Final residual = 0.00147188, No Iterations 3
bounding omega, min: -2182.54 max: 71305.3 average: 490.071
smoothSolver:  Solving for k, Initial residual = 1, Final residual = 0.077689, No Iterations 4
ExecutionTime = 6.5 s  ClockTime = 7 s

forceCoeffs forceCoeffs1 write:
    Cm    = 12.3981
    Cd    = 26.8076
    Cl    = -1.81449
    Cl(f) = 11.4908
    Cl(r) = -13.3053

Time = 2

smoothSolver:  Solving for Ux, Initial residual = 0.107195, Final residual = 0.00972005, No Iterations 12
smoothSolver:  Solving for Uy, Initial residual = 0.51817, Final residual = 0.0515916, No Iterations 11
smoothSolver:  Solving for Uz, Initial residual = 0.393702, Final residual = 0.0382374, No Iterations 11
GAMG:  Solving for p, Initial residual = 0.232407, Final residual = 0.00214634, No Iterations 4
time step continuity errors : sum local = 0.00960117, global = 2.3934e-05, cumulative = 2.87152e-05
smoothSolver:  Solving for omega, Initial residual = 1, Final residual = 0.0726942, No Iterations 4
smoothSolver:  Solving for k, Initial residual = 0.970331, Final residual = 6.03258e-09, No Iterations 1
ExecutionTime = 6.56 s  ClockTime = 7 s

forceCoeffs forceCoeffs1 write:
    Cm    = 4.77963
    Cd    = 10.9233
    Cl    = -0.382482
    Cl(f) = 4.58839
    Cl(r) = -4.97087

Time = 3

smoothSolver:  Solving for Ux, Initial residual = 0.143395, Final residual = 0.0120879, No Iterations 5
smoothSolver:  Solving for Uy, Initial residual = 0.570536, Final residual = 0.0439906, No Iterations 6
smoothSolver:  Solving for Uz, Initial residual = 0.633665, Final residual = 0.0508597, No Iterations 5
GAMG:  Solving for p, Initial residual = 0.146799, Final residual = 0.000822941, No Iterations 5
time step continuity errors : sum local = 0.00291098, global = 2.54842e-05, cumulative = 5.41994e-05
smoothSolver:  Solving for omega, Initial residual = 0.538466, Final residual = 8.66627e-14, No Iterations 1
bounding omega, min: -1.82058e+08 max: 7.60781e+16 average: 1.57863e+11
smoothSolver:  Solving for k, Initial residual = 0.115417, Final residual = 7.38609e-09, No Iterations 1
ExecutionTime = 6.63 s  ClockTime = 7 s

forceCoeffs forceCoeffs1 write:
    Cm    = 3.6503
    Cd    = 8.41078
    Cl    = -1.39037
    Cl(f) = 2.95512
    Cl(r) = -4.34548

Time = 4

smoothSolver:  Solving for Ux, Initial residual = 0.064332, Final residual = 0.00521958, No Iterations 6
smoothSolver:  Solving for Uy, Initial residual = 0.472169, Final residual = 0.0387266, No Iterations 6
smoothSolver:  Solving for Uz, Initial residual = 0.463661, Final residual = 0.034637, No Iterations 6
GAMG:  Solving for p, Initial residual = 0.0788082, Final residual = 0.000356441, No Iterations 5
time step continuity errors : sum local = 0.00153608, global = 8.73153e-06, cumulative = 6.29309e-05
smoothSolver:  Solving for omega, Initial residual = 0.538466, Final residual = 3.42184e-13, No Iterations 1
bounding omega, min: -466713 max: 2.28234e+16 average: 4.73609e+10
smoothSolver:  Solving for k, Initial residual = 0.0271906, Final residual = 1.976e-08, No Iterations 1
ExecutionTime = 6.71 s  ClockTime = 7 s

forceCoeffs forceCoeffs1 write:
    Cm    = 1.52075
    Cd    = 3.82487
    Cl    = -0.594432
    Cl(f) = 1.22353
    Cl(r) = -1.81796

Time = 5

smoothSolver:  Solving for Ux, Initial residual = 0.0274891, Final residual = 0.00243629, No Iterations 7
smoothSolver:  Solving for Uy, Initial residual = 0.363557, Final residual = 0.0292652, No Iterations 7
smoothSolver:  Solving for Uz, Initial residual = 0.333533, Final residual = 0.0325728, No Iterations 6
GAMG:  Solving for p, Initial residual = 0.0607827, Final residual = 0.000516788, No Iterations 4
time step continuity errors : sum local = 0.00247765, global = 2.08859e-05, cumulative = 8.38169e-05
smoothSolver:  Solving for omega, Initial residual = 0.538466, Final residual = 1.25741e-12, No Iterations 1
bounding omega, min: -170870 max: 6.84703e+15 average: 1.42083e+10
smoothSolver:  Solving for k, Initial residual = 0.00702076, Final residual = 5.83242e-08, No Iterations 1
ExecutionTime = 6.79 s  ClockTime = 7 s

forceCoeffs forceCoeffs1 write:
    Cm    = 0.748264
    Cd    = 1.92485
    Cl    = -0.27925
    Cl(f) = 0.608638
    Cl(r) = -0.887889

Time = 6

smoothSolver:  Solving for Ux, Initial residual = 0.0194292, Final residual = 0.00172563, No Iterations 7
smoothSolver:  Solving for Uy, Initial residual = 0.306059, Final residual = 0.0269476, No Iterations 7
smoothSolver:  Solving for Uz, Initial residual = 0.280488, Final residual = 0.0223408, No Iterations 7
GAMG:  Solving for p, Initial residual = 0.0529682, Final residual = 0.000388353, No Iterations 4
time step continuity errors : sum local = 0.00180492, global = 1.49311e-05, cumulative = 9.87479e-05
smoothSolver:  Solving for omega, Initial residual = 0.538466, Final residual = 4.18779e-12, No Iterations 1
bounding omega, min: -81827.4 max: 2.05411e+15 average: 4.26249e+09
smoothSolver:  Solving for k, Initial residual = 0.00188115, Final residual = 1.71991e-07, No Iterations 1
ExecutionTime = 6.87 s  ClockTime = 7 s

forceCoeffs forceCoeffs1 write:
    Cm    = 0.47848
    Cd    = 1.21197
    Cl    = -0.119541
    Cl(f) = 0.41871
    Cl(r) = -0.538251

Time = 7

smoothSolver:  Solving for Ux, Initial residual = 0.0140985, Final residual = 0.00110999, No Iterations 8
smoothSolver:  Solving for Uy, Initial residual = 0.252257, Final residual = 0.0247838, No Iterations 7
smoothSolver:  Solving for Uz, Initial residual = 0.242195, Final residual = 0.0213687, No Iterations 7
GAMG:  Solving for p, Initial residual = 0.0483056, Final residual = 0.000350305, No Iterations 4
time step continuity errors : sum local = 0.00157297, global = 1.35838e-05, cumulative = 0.000112332
smoothSolver:  Solving for omega, Initial residual = 0.538466, Final residual = 1.34565e-11, No Iterations 1
bounding omega, min: -16916.6 max: 6.16232e+14 average: 1.27875e+09
smoothSolver:  Solving for k, Initial residual = 0.000520779, Final residual = 5.27358e-07, No Iterations 1
ExecutionTime = 6.92 s  ClockTime = 7 s

forceCoeffs forceCoeffs1 write:
    Cm    = 0.346411
    Cd    = 0.837424
    Cl    = -0.064981
    Cl(f) = 0.313921
    Cl(r) = -0.378901

Time = 8

smoothSolver:  Solving for Ux, Initial residual = 0.0116492, Final residual = 0.000948757, No Iterations 8
smoothSolver:  Solving for Uy, Initial residual = 0.222392, Final residual = 0.0173634, No Iterations 8
smoothSolver:  Solving for Uz, Initial residual = 0.220653, Final residual = 0.0206158, No Iterations 7
GAMG:  Solving for p, Initial residual = 0.045017, Final residual = 0.000303618, No Iterations 4
time step continuity errors : sum local = 0.0013166, global = 5.96745e-06, cumulative = 0.000118299
smoothSolver:  Solving for omega, Initial residual = 0.538466, Final residual = 3.88617e-11, No Iterations 1
bounding omega, min: -31287.9 max: 1.8487e+14 average: 3.83627e+08
smoothSolver:  Solving for k, Initial residual = 0.00015017, Final residual = 1.64335e-06, No Iterations 1
ExecutionTime = 6.97 s  ClockTime = 8 s

forceCoeffs forceCoeffs1 write:
    Cm    = 0.292253
    Cd    = 0.676736
    Cl    = -0.0452779
    Cl(f) = 0.269615
    Cl(r) = -0.314892

Time = 9

smoothSolver:  Solving for Ux, Initial residual = 0.00978699, Final residual = 0.000845122, No Iterations 8
smoothSolver:  Solving for Uy, Initial residual = 0.194585, Final residual = 0.0157384, No Iterations 8
smoothSolver:  Solving for Uz, Initial residual = 0.208306, Final residual = 0.0207336, No Iterations 7
GAMG:  Solving for p, Initial residual = 0.0429718, Final residual = 0.000280176, No Iterations 4
time step continuity errors : sum local = 0.00118163, global = -2.22624e-06, cumulative = 0.000116073
smoothSolver:  Solving for omega, Initial residual = 0.538466, Final residual = 1.07861e-10, No Iterations 1
bounding omega, min: -10537.6 max: 5.54609e+13 average: 1.1509e+08
smoothSolver:  Solving for k, Initial residual = 5.37638e-05, Final residual = 5.22406e-06, No Iterations 1
ExecutionTime = 7.03 s  ClockTime = 8 s

forceCoeffs forceCoeffs1 write:
    Cm    = 0.272455
    Cd    = 0.594839
    Cl    = -0.0500977
    Cl(f) = 0.247407
    Cl(r) = -0.297504

Time = 10

smoothSolver:  Solving for Ux, Initial residual = 0.00869367, Final residual = 0.000777987, No Iterations 8
smoothSolver:  Solving for Uy, Initial residual = 0.175802, Final residual = 0.0144986, No Iterations 8
smoothSolver:  Solving for Uz, Initial residual = 0.202761, Final residual = 0.0164122, No Iterations 8
GAMG:  Solving for p, Initial residual = 0.041181, Final residual = 0.000271281, No Iterations 4
time step continuity errors : sum local = 0.00110888, global = -8.1116e-06, cumulative = 0.000107961
smoothSolver:  Solving for omega, Initial residual = 0.538466, Final residual = 3.01788e-10, No Iterations 1
bounding omega, min: -124.032 max: 1.66383e+13 average: 3.45284e+07
smoothSolver:  Solving for k, Initial residual = 5.12098e-05, Final residual = 3.95128e-06, No Iterations 3
ExecutionTime = 7.08 s  ClockTime = 8 s

forceCoeffs forceCoeffs1 write:
    Cm    = 0.254105
    Cd    = 0.547229
    Cl    = -0.0375741
    Cl(f) = 0.235318
    Cl(r) = -0.272892

Time = 11

smoothSolver:  Solving for Ux, Initial residual = 0.00787374, Final residual = 0.000726014, No Iterations 8
smoothSolver:  Solving for Uy, Initial residual = 0.161716, Final residual = 0.013979, No Iterations 8
smoothSolver:  Solving for Uz, Initial residual = 0.191834, Final residual = 0.0161617, No Iterations 8
GAMG:  Solving for p, Initial residual = 0.0399043, Final residual = 0.000264179, No Iterations 4
time step continuity errors : sum local = 0.00104806, global = -1.07563e-05, cumulative = 9.72051e-05
smoothSolver:  Solving for omega, Initial residual = 0.538466, Final residual = 1.06766e-09, No Iterations 1
bounding omega, min: -14357.1 max: 4.99148e+12 average: 1.03598e+07
smoothSolver:  Solving for k, Initial residual = 0.000123721, Final residual = 6.3139e-06, No Iterations 4
bounding k, min: -4.0847e-06 max: 147.073 average: 0.512682
ExecutionTime = 7.14 s  ClockTime = 8 s

forceCoeffs forceCoeffs1 write:
    Cm    = 0.240523
    Cd    = 0.519788
    Cl    = -0.0388674
    Cl(f) = 0.221089
    Cl(r) = -0.259956

Time = 12

smoothSolver:  Solving for Ux, Initial residual = 0.00727812, Final residual = 0.000692636, No Iterations 8
smoothSolver:  Solving for Uy, Initial residual = 0.151997, Final residual = 0.0134674, No Iterations 8
smoothSolver:  Solving for Uz, Initial residual = 0.176229, Final residual = 0.0153466, No Iterations 8
GAMG:  Solving for p, Initial residual = 0.0388522, Final residual = 0.000267713, No Iterations 4
time step continuity errors : sum local = 0.00102414, global = -1.11104e-05, cumulative = 8.60947e-05
smoothSolver:  Solving for omega, Initial residual = 0.538466, Final residual = 3.20887e-09, No Iterations 1
bounding omega, min: -12703.6 max: 1.49744e+12 average: 3.1091e+06
smoothSolver:  Solving for k, Initial residual = 0.000376336, Final residual = 1.95143e-05, No Iterations 4
bounding k, min: -2.91553e-06 max: 165.092 average: 0.533495
ExecutionTime = 7.19 s  ClockTime = 8 s

forceCoeffs forceCoeffs1 write:
    Cm    = 0.223882
    Cd    = 0.488832
    Cl    = -0.025253
    Cl(f) = 0.211255
    Cl(r) = -0.236508

Time = 13

smoothSolver:  Solving for Ux, Initial residual = 0.00681699, Final residual = 0.000676245, No Iterations 8
smoothSolver:  Solving for Uy, Initial residual = 0.142199, Final residual = 0.0130486, No Iterations 8
smoothSolver:  Solving for Uz, Initial residual = 0.16407, Final residual = 0.0147557, No Iterations 8
GAMG:  Solving for p, Initial residual = 0.0379181, Final residual = 0.000262615, No Iterations 4
time step continuity errors : sum local = 0.000966875, global = -9.55626e-06, cumulative = 7.65384e-05
smoothSolver:  Solving for omega, Initial residual = 0.538466, Final residual = 9.4836e-09, No Iterations 1
bounding omega, min: -14765.5 max: 4.49233e+11 average: 933764
smoothSolver:  Solving for k, Initial residual = 0.00105645, Final residual = 5.54626e-05, No Iterations 4
bounding k, min: -5.81155e-06 max: 188.778 average: 0.550604
ExecutionTime = 7.26 s  ClockTime = 8 s

forceCoeffs forceCoeffs1 write:
    Cm    = 0.210878
    Cd    = 0.466256
    Cl    = -0.0163733
    Cl(f) = 0.202691
    Cl(r) = -0.219065

Time = 14

smoothSolver:  Solving for Ux, Initial residual = 0.00647552, Final residual = 0.000523316, No Iterations 9
smoothSolver:  Solving for Uy, Initial residual = 0.132866, Final residual = 0.0126613, No Iterations 8
smoothSolver:  Solving for Uz, Initial residual = 0.154576, Final residual = 0.0144984, No Iterations 8
GAMG:  Solving for p, Initial residual = 0.0374015, Final residual = 0.000248076, No Iterations 4
time step continuity errors : sum local = 0.000877217, global = -6.11402e-06, cumulative = 7.04244e-05
smoothSolver:  Solving for omega, Initial residual = 0.538464, Final residual = 3.07531e-08, No Iterations 1
bounding omega, min: -29526.4 max: 1.3477e+11 average: 281078
smoothSolver:  Solving for k, Initial residual = 0.00249248, Final residual = 0.000128146, No Iterations 4
bounding k, min: -4.07339e-07 max: 281.153 average: 0.567436
ExecutionTime = 7.34 s  ClockTime = 8 s

forceCoeffs forceCoeffs1 write:
    Cm    = 0.200157
    Cd    = 0.453641
    Cl    = -0.00483272
    Cl(f) = 0.19774
    Cl(r) = -0.202573

Time = 15

smoothSolver:  Solving for Ux, Initial residual = 0.00613337, Final residual = 0.000515899, No Iterations 9
smoothSolver:  Solving for Uy, Initial residual = 0.12222, Final residual = 0.0122086, No Iterations 8
smoothSolver:  Solving for Uz, Initial residual = 0.148176, Final residual = 0.0144558, No Iterations 8
GAMG:  Solving for p, Initial residual = 0.0369535, Final residual = 0.000248627, No Iterations 4
time step continuity errors : sum local = 0.000841144, global = -5.16339e-06, cumulative = 6.5261e-05
smoothSolver:  Solving for omega, Initial residual = 0.538459, Final residual = 9.22653e-08, No Iterations 1
bounding omega, min: -23800.4 max: 4.0431e+10 average: 85209
smoothSolver:  Solving for k, Initial residual = 0.00424267, Final residual = 0.000424217, No Iterations 3
bounding k, min: -9.43408e-08 max: 516.544 average: 0.581378
ExecutionTime = 7.44 s  ClockTime = 8 s

forceCoeffs forceCoeffs1 write:
    Cm    = 0.192406
    Cd    = 0.449355
    Cl    = 0.015749
    Cl(f) = 0.200281
    Cl(r) = -0.184532

Time = 16

smoothSolver:  Solving for Ux, Initial residual = 0.0059021, Final residual = 0.000511114, No Iterations 9
smoothSolver:  Solving for Uy, Initial residual = 0.112606, Final residual = 0.00932885, No Iterations 9
smoothSolver:  Solving for Uz, Initial residual = 0.142488, Final residual = 0.0113773, No Iterations 9
GAMG:  Solving for p, Initial residual = 0.0365742, Final residual = 0.000249596, No Iterations 4
time step continuity errors : sum local = 0.000804175, global = -4.49823e-06, cumulative = 6.07628e-05
smoothSolver:  Solving for omega, Initial residual = 0.538443, Final residual = 2.78306e-07, No Iterations 1
bounding omega, min: -2560.71 max: 1.21293e+10 average: 26405.3
smoothSolver:  Solving for k, Initial residual = 0.00498829, Final residual = 0.000264703, No Iterations 4
bounding k, min: -2.62339e-07 max: 233.847 average: 0.591849
ExecutionTime = 7.51 s  ClockTime = 8 s

forceCoeffs forceCoeffs1 write:
    Cm    = 0.181603
    Cd    = 0.438548
    Cl    = 0.0192582
    Cl(f) = 0.191232
    Cl(r) = -0.171973

Time = 17

smoothSolver:  Solving for Ux, Initial residual = 0.00560831, Final residual = 0.000507735, No Iterations 9
smoothSolver:  Solving for Uy, Initial residual = 0.104686, Final residual = 0.00898758, No Iterations 9
smoothSolver:  Solving for Uz, Initial residual = 0.133667, Final residual = 0.0112449, No Iterations 9
GAMG:  Solving for p, Initial residual = 0.0364738, Final residual = 0.000248751, No Iterations 4
time step continuity errors : sum local = 0.000761625, global = -3.84056e-06, cumulative = 5.69222e-05
smoothSolver:  Solving for omega, Initial residual = 0.538385, Final residual = 8.74138e-07, No Iterations 1
bounding omega, min: -553.954 max: 3.63879e+09 average: 8732.67
smoothSolver:  Solving for k, Initial residual = 0.00528543, Final residual = 0.00029092, No Iterations 4
bounding k, min: -3.82396e-07 max: 277.571 average: 0.600461
ExecutionTime = 7.58 s  ClockTime = 8 s

forceCoeffs forceCoeffs1 write:
    Cm    = 0.17141
    Cd    = 0.426695
    Cl    = 0.024795
    Cl(f) = 0.183807
    Cl(r) = -0.159012

Time = 18

smoothSolver:  Solving for Ux, Initial residual = 0.00539035, Final residual = 0.00050489, No Iterations 9
smoothSolver:  Solving for Uy, Initial residual = 0.0987113, Final residual = 0.00866249, No Iterations 9
smoothSolver:  Solving for Uz, Initial residual = 0.125408, Final residual = 0.0109728, No Iterations 9
GAMG:  Solving for p, Initial residual = 0.0363971, Final residual = 0.000243156, No Iterations 4
time step continuity errors : sum local = 0.000709988, global = -2.40207e-06, cumulative = 5.45201e-05
smoothSolver:  Solving for omega, Initial residual = 0.538168, Final residual = 2.62453e-06, No Iterations 1
smoothSolver:  Solving for k, Initial residual = 0.00541443, Final residual = 0.000305015, No Iterations 4
bounding k, min: -2.56879e-08 max: 291.084 average: 0.609238
ExecutionTime = 7.64 s  ClockTime = 8 s

forceCoeffs forceCoeffs1 write:
    Cm    = 0.165967
    Cd    = 0.423157
    Cl    = 0.0222456
    Cl(f) = 0.17709
    Cl(r) = -0.154844

Time = 19

smoothSolver:  Solving for Ux, Initial residual = 0.00521118, Final residual = 0.00049965, No Iterations 9
smoothSolver:  Solving for Uy, Initial residual = 0.0945451, Final residual = 0.00853775, No Iterations 9
smoothSolver:  Solving for Uz, Initial residual = 0.117439, Final residual = 0.0106051, No Iterations 9
GAMG:  Solving for p, Initial residual = 0.0360828, Final residual = 0.000254978, No Iterations 4
time step continuity errors : sum local = 0.000712131, global = -2.76631e-06, cumulative = 5.17538e-05
smoothSolver:  Solving for omega, Initial residual = 0.537188, Final residual = 8.5563e-06, No Iterations 1
smoothSolver:  Solving for k, Initial residual = 0.00558202, Final residual = 0.000320095, No Iterations 4
ExecutionTime = 7.7 s  ClockTime = 8 s

forceCoeffs forceCoeffs1 write:
    Cm    = 0.160913
    Cd    = 0.41338
    Cl    = 0.0193152
    Cl(f) = 0.17057
    Cl(r) = -0.151255

Time = 20

smoothSolver:  Solving for Ux, Initial residual = 0.00504901, Final residual = 0.000491578, No Iterations 9
smoothSolver:  Solving for Uy, Initial residual = 0.0921395, Final residual = 0.00853232, No Iterations 9
smoothSolver:  Solving for Uz, Initial residual = 0.111738, Final residual = 0.010315, No Iterations 9
GAMG:  Solving for p, Initial residual = 0.0355972, Final residual = 0.000252299, No Iterations 4
time step continuity errors : sum local = 0.00067791, global = -2.80634e-06, cumulative = 4.89475e-05
smoothSolver:  Solving for omega, Initial residual = 0.531165, Final residual = 2.96666e-05, No Iterations 1
smoothSolver:  Solving for k, Initial residual = 0.00573688, Final residual = 0.000334213, No Iterations 4
ExecutionTime = 7.76 s  ClockTime = 8 s

forceCoeffs forceCoeffs1 write:
    Cm    = 0.158901
    Cd    = 0.409442
    Cl    = 0.0143903
    Cl(f) = 0.166096
    Cl(r) = -0.151705

Time = 21

smoothSolver:  Solving for Ux, Initial residual = 0.00486208, Final residual = 0.000483545, No Iterations 9
smoothSolver:  Solving for Uy, Initial residual = 0.0907044, Final residual = 0.00863201, No Iterations 9
smoothSolver:  Solving for Uz, Initial residual = 0.107535, Final residual = 0.0102042, No Iterations 9
GAMG:  Solving for p, Initial residual = 0.0350018, Final residual = 0.000254708, No Iterations 4
time step continuity errors : sum local = 0.000661228, global = -3.00074e-06, cumulative = 4.59468e-05
smoothSolver:  Solving for omega, Initial residual = 0.485554, Final residual = 0.000112769, No Iterations 1
smoothSolver:  Solving for k, Initial residual = 0.00569471, Final residual = 0.000347864, No Iterations 4
ExecutionTime = 7.82 s  ClockTime = 8 s

forceCoeffs forceCoeffs1 write:
    Cm    = 0.160737
    Cd    = 0.408529
    Cl    = 0.0134997
    Cl(f) = 0.167486
    Cl(r) = -0.153987

Time = 22

smoothSolver:  Solving for Ux, Initial residual = 0.00470747, Final residual = 0.000384537, No Iterations 10
smoothSolver:  Solving for Uy, Initial residual = 0.0907494, Final residual = 0.00882845, No Iterations 9
smoothSolver:  Solving for Uz, Initial residual = 0.103961, Final residual = 0.0101035, No Iterations 9
GAMG:  Solving for p, Initial residual = 0.0340031, Final residual = 0.000250544, No Iterations 4
time step continuity errors : sum local = 0.000632231, global = -2.78753e-06, cumulative = 4.31592e-05
smoothSolver:  Solving for omega, Initial residual = 0.2628, Final residual = 0.000327506, No Iterations 1
smoothSolver:  Solving for k, Initial residual = 0.00573343, Final residual = 0.000359459, No Iterations 4
ExecutionTime = 7.88 s  ClockTime = 8 s

forceCoeffs forceCoeffs1 write:
    Cm    = 0.162757
    Cd    = 0.408055
    Cl    = 0.01172
    Cl(f) = 0.168617
    Cl(r) = -0.156897

Time = 23

smoothSolver:  Solving for Ux, Initial residual = 0.00454975, Final residual = 0.000383065, No Iterations 10
smoothSolver:  Solving for Uy, Initial residual = 0.0912929, Final residual = 0.00732571, No Iterations 10
smoothSolver:  Solving for Uz, Initial residual = 0.0996647, Final residual = 0.0080156, No Iterations 10
GAMG:  Solving for p, Initial residual = 0.0329081, Final residual = 0.000247802, No Iterations 4
time step continuity errors : sum local = 0.000609228, global = -3.11071e-06, cumulative = 4.00485e-05
smoothSolver:  Solving for omega, Initial residual = 0.0457662, Final residual = 0.000404611, No Iterations 1
smoothSolver:  Solving for k, Initial residual = 0.00580033, Final residual = 0.000373418, No Iterations 4
ExecutionTime = 7.94 s  ClockTime = 8 s

forceCoeffs forceCoeffs1 write:
    Cm    = 0.164828
    Cd    = 0.406108
    Cl    = 0.0109083
    Cl(f) = 0.170282
    Cl(r) = -0.159374

Time = 24

smoothSolver:  Solving for Ux, Initial residual = 0.00441321, Final residual = 0.000382283, No Iterations 10
smoothSolver:  Solving for Uy, Initial residual = 0.0910465, Final residual = 0.00748451, No Iterations 10
smoothSolver:  Solving for Uz, Initial residual = 0.0943026, Final residual = 0.00774309, No Iterations 10
GAMG:  Solving for p, Initial residual = 0.03192, Final residual = 0.000241087, No Iterations 4
time step continuity errors : sum local = 0.000578036, global = -3.67334e-06, cumulative = 3.63752e-05
smoothSolver:  Solving for omega, Initial residual = 0.00538783, Final residual = 0.000360549, No Iterations 1
smoothSolver:  Solving for k, Initial residual = 0.00582129, Final residual = 0.000386609, No Iterations 4
ExecutionTime = 7.99 s  ClockTime = 9 s

forceCoeffs forceCoeffs1 write:
    Cm    = 0.166084
    Cd    = 0.405507
    Cl    = 0.0103797
    Cl(f) = 0.171274
    Cl(r) = -0.160894

Time = 25

smoothSolver:  Solving for Ux, Initial residual = 0.00427098, Final residual = 0.000378143, No Iterations 10
smoothSolver:  Solving for Uy, Initial residual = 0.0892684, Final residual = 0.00747214, No Iterations 10
smoothSolver:  Solving for Uz, Initial residual = 0.0876731, Final residual = 0.00735046, No Iterations 10
GAMG:  Solving for p, Initial residual = 0.0310095, Final residual = 0.000232171, No Iterations 4
time step continuity errors : sum local = 0.000542241, global = -3.28306e-06, cumulative = 3.30921e-05
smoothSolver:  Solving for omega, Initial residual = 0.00120318, Final residual = 7.07146e-05, No Iterations 3
smoothSolver:  Solving for k, Initial residual = 0.00575068, Final residual = 0.000391325, No Iterations 4
ExecutionTime = 8.05 s  ClockTime = 9 s

forceCoeffs forceCoeffs1 write:
    Cm    = 0.166323
    Cd    = 0.404158
    Cl    = 0.0132326
    Cl(f) = 0.17294
    Cl(r) = -0.159707

Time = 26

smoothSolver:  Solving for Ux, Initial residual = 0.00413538, Final residual = 0.000370506, No Iterations 10
smoothSolver:  Solving for Uy, Initial residual = 0.0869286, Final residual = 0.00734987, No Iterations 10
smoothSolver:  Solving for Uz, Initial residual = 0.0811341, Final residual = 0.00692336, No Iterations 10
GAMG:  Solving for p, Initial residual = 0.03017, Final residual = 0.000225263, No Iterations 4
time step continuity errors : sum local = 0.000511692, global = -3.60245e-06, cumulative = 2.94897e-05
smoothSolver:  Solving for omega, Initial residual = 0.000668747, Final residual = 6.20444e-05, No Iterations 3
smoothSolver:  Solving for k, Initial residual = 0.00563387, Final residual = 0.000389455, No Iterations 4
ExecutionTime = 8.1 s  ClockTime = 9 s

forceCoeffs forceCoeffs1 write:
    Cm    = 0.165815
    Cd    = 0.402821
    Cl    = 0.0190625
    Cl(f) = 0.175346
    Cl(r) = -0.156284

Time = 27

smoothSolver:  Solving for Ux, Initial residual = 0.0039961, Final residual = 0.000362302, No Iterations 10
smoothSolver:  Solving for Uy, Initial residual = 0.08432, Final residual = 0.00721605, No Iterations 10
smoothSolver:  Solving for Uz, Initial residual = 0.0753339, Final residual = 0.00655422, No Iterations 10
GAMG:  Solving for p, Initial residual = 0.0294532, Final residual = 0.000223357, No Iterations 4
time step continuity errors : sum local = 0.000493749, global = -4.5302e-06, cumulative = 2.49595e-05
smoothSolver:  Solving for omega, Initial residual = 0.000567173, Final residual = 5.64246e-05, No Iterations 3
smoothSolver:  Solving for k, Initial residual = 0.00565393, Final residual = 0.000392613, No Iterations 4
ExecutionTime = 8.16 s  ClockTime = 9 s

forceCoeffs forceCoeffs1 write:
    Cm    = 0.165031
    Cd    = 0.402581
    Cl    = 0.0269251
    Cl(f) = 0.178493
    Cl(r) = -0.151568

Time = 28

smoothSolver:  Solving for Ux, Initial residual = 0.00388705, Final residual = 0.000354549, No Iterations 10
smoothSolver:  Solving for Uy, Initial residual = 0.0820548, Final residual = 0.00711481, No Iterations 10
smoothSolver:  Solving for Uz, Initial residual = 0.0711407, Final residual = 0.00625527, No Iterations 10
GAMG:  Solving for p, Initial residual = 0.0287195, Final residual = 0.000222293, No Iterations 4
time step continuity errors : sum local = 0.00047708, global = -5.31549e-06, cumulative = 1.9644e-05
smoothSolver:  Solving for omega, Initial residual = 0.000539715, Final residual = 5.25066e-05, No Iterations 3
smoothSolver:  Solving for k, Initial residual = 0.0057843, Final residual = 0.000388214, No Iterations 4
ExecutionTime = 8.22 s  ClockTime = 9 s

forceCoeffs forceCoeffs1 write:
    Cm    = 0.163958
    Cd    = 0.401146
    Cl    = 0.0335966
    Cl(f) = 0.180756
    Cl(r) = -0.147159

Time = 29

smoothSolver:  Solving for Ux, Initial residual = 0.00377418, Final residual = 0.000346575, No Iterations 10
smoothSolver:  Solving for Uy, Initial residual = 0.0798264, Final residual = 0.00702356, No Iterations 10
smoothSolver:  Solving for Uz, Initial residual = 0.0679656, Final residual = 0.00603073, No Iterations 10
GAMG:  Solving for p, Initial residual = 0.0281568, Final residual = 0.000224009, No Iterations 4
time step continuity errors : sum local = 0.000466372, global = -5.62793e-06, cumulative = 1.4016e-05
smoothSolver:  Solving for omega, Initial residual = 0.000538767, Final residual = 4.96021e-05, No Iterations 3
smoothSolver:  Solving for k, Initial residual = 0.0056981, Final residual = 0.000381565, No Iterations 4
ExecutionTime = 8.28 s  ClockTime = 9 s

forceCoeffs forceCoeffs1 write:
    Cm    = 0.165913
    Cd    = 0.407339
    Cl    = 0.0418994
    Cl(f) = 0.186863
    Cl(r) = -0.144963

Time = 30

smoothSolver:  Solving for Ux, Initial residual = 0.00366147, Final residual = 0.000337255, No Iterations 10
smoothSolver:  Solving for Uy, Initial residual = 0.0784618, Final residual = 0.00697035, No Iterations 10
smoothSolver:  Solving for Uz, Initial residual = 0.065546, Final residual = 0.00581805, No Iterations 10
GAMG:  Solving for p, Initial residual = 0.0274965, Final residual = 0.00021425, No Iterations 4
time step continuity errors : sum local = 0.000432979, global = -5.71822e-06, cumulative = 8.29783e-06
smoothSolver:  Solving for omega, Initial residual = 0.000489347, Final residual = 4.69235e-05, No Iterations 3
smoothSolver:  Solving for k, Initial residual = 0.00551848, Final residual = 0.000378859, No Iterations 4
ExecutionTime = 8.34 s  ClockTime = 9 s

forceCoeffs forceCoeffs1 write:
    Cm    = 0.165646
    Cd    = 0.404778
    Cl    = 0.0448699
    Cl(f) = 0.188081
    Cl(r) = -0.143211

Time = 31

smoothSolver:  Solving for Ux, Initial residual = 0.00349947, Final residual = 0.00032716, No Iterations 10
smoothSolver:  Solving for Uy, Initial residual = 0.0772173, Final residual = 0.00698737, No Iterations 10
smoothSolver:  Solving for Uz, Initial residual = 0.0621082, Final residual = 0.00561474, No Iterations 10
GAMG:  Solving for p, Initial residual = 0.0270168, Final residual = 0.000210756, No Iterations 4
time step continuity errors : sum local = 0.000414229, global = -5.76721e-06, cumulative = 2.53062e-06
smoothSolver:  Solving for omega, Initial residual = 0.000446642, Final residual = 2.24503e-05, No Iterations 4
smoothSolver:  Solving for k, Initial residual = 0.00535702, Final residual = 0.000377032, No Iterations 4
ExecutionTime = 8.41 s  ClockTime = 9 s

forceCoeffs forceCoeffs1 write:
    Cm    = 0.166821
    Cd    = 0.404607
    Cl    = 0.0477785
    Cl(f) = 0.19071
    Cl(r) = -0.142932

Time = 32

smoothSolver:  Solving for Ux, Initial residual = 0.0033829, Final residual = 0.000318347, No Iterations 10
smoothSolver:  Solving for Uy, Initial residual = 0.0764251, Final residual = 0.0069933, No Iterations 10
smoothSolver:  Solving for Uz, Initial residual = 0.0599242, Final residual = 0.00543195, No Iterations 10
GAMG:  Solving for p, Initial residual = 0.0265429, Final residual = 0.000209546, No Iterations 4
time step continuity errors : sum local = 0.000401794, global = -5.65625e-06, cumulative = -3.12563e-06
smoothSolver:  Solving for omega, Initial residual = 0.00041732, Final residual = 2.12957e-05, No Iterations 4
smoothSolver:  Solving for k, Initial residual = 0.005254, Final residual = 0.000373204, No Iterations 4
ExecutionTime = 8.48 s  ClockTime = 9 s

forceCoeffs forceCoeffs1 write:
    Cm    = 0.167481
    Cd    = 0.403195
    Cl    = 0.0499359
    Cl(f) = 0.192449
    Cl(r) = -0.142513

Time = 33

smoothSolver:  Solving for Ux, Initial residual = 0.00327584, Final residual = 0.000311732, No Iterations 10
smoothSolver:  Solving for Uy, Initial residual = 0.074469, Final residual = 0.00686157, No Iterations 10
smoothSolver:  Solving for Uz, Initial residual = 0.0580737, Final residual = 0.0052822, No Iterations 10
GAMG:  Solving for p, Initial residual = 0.0260568, Final residual = 0.000208038, No Iterations 4
time step continuity errors : sum local = 0.000389386, global = -5.36993e-06, cumulative = -8.49556e-06
smoothSolver:  Solving for omega, Initial residual = 0.000396377, Final residual = 2.0311e-05, No Iterations 4
smoothSolver:  Solving for k, Initial residual = 0.00517474, Final residual = 0.000366452, No Iterations 4
ExecutionTime = 8.54 s  ClockTime = 9 s

forceCoeffs forceCoeffs1 write:
    Cm    = 0.16725
    Cd    = 0.400326
    Cl    = 0.0510185
    Cl(f) = 0.19276
    Cl(r) = -0.141741

Time = 34

smoothSolver:  Solving for Ux, Initial residual = 0.00316483, Final residual = 0.000304889, No Iterations 10
smoothSolver:  Solving for Uy, Initial residual = 0.071143, Final residual = 0.00658657, No Iterations 10
smoothSolver:  Solving for Uz, Initial residual = 0.05612, Final residual = 0.0051434, No Iterations 10
GAMG:  Solving for p, Initial residual = 0.0254246, Final residual = 0.000207138, No Iterations 4
time step continuity errors : sum local = 0.000378767, global = -4.41959e-06, cumulative = -1.29151e-05
smoothSolver:  Solving for omega, Initial residual = 0.000379493, Final residual = 1.95706e-05, No Iterations 4
smoothSolver:  Solving for k, Initial residual = 0.00504737, Final residual = 0.000358777, No Iterations 4
ExecutionTime = 8.59 s  ClockTime = 9 s

forceCoeffs forceCoeffs1 write:
    Cm    = 0.167005
    Cd    = 0.398298
    Cl    = 0.0519718
    Cl(f) = 0.192991
    Cl(r) = -0.141019

Time = 35

smoothSolver:  Solving for Ux, Initial residual = 0.00306122, Final residual = 0.000296031, No Iterations 10
smoothSolver:  Solving for Uy, Initial residual = 0.0682477, Final residual = 0.0063278, No Iterations 10
smoothSolver:  Solving for Uz, Initial residual = 0.053944, Final residual = 0.00497832, No Iterations 10
GAMG:  Solving for p, Initial residual = 0.0247789, Final residual = 0.000202402, No Iterations 4
time step continuity errors : sum local = 0.000362934, global = -3.44394e-06, cumulative = -1.63591e-05
smoothSolver:  Solving for omega, Initial residual = 0.000363768, Final residual = 1.89985e-05, No Iterations 4
smoothSolver:  Solving for k, Initial residual = 0.00493081, Final residual = 0.000350976, No Iterations 4
ExecutionTime = 8.65 s  ClockTime = 9 s

forceCoeffs forceCoeffs1 write:
    Cm    = 0.166272
    Cd    = 0.395513
    Cl    = 0.051796
    Cl(f) = 0.19217
    Cl(r) = -0.140374

Time = 36

smoothSolver:  Solving for Ux, Initial residual = 0.00296749, Final residual = 0.000287076, No Iterations 10
smoothSolver:  Solving for Uy, Initial residual = 0.0663026, Final residual = 0.00617604, No Iterations 10
smoothSolver:  Solving for Uz, Initial residual = 0.0517674, Final residual = 0.00482146, No Iterations 10
GAMG:  Solving for p, Initial residual = 0.0240135, Final residual = 0.000193391, No Iterations 4
time step continuity errors : sum local = 0.000340875, global = -2.83563e-06, cumulative = -1.91947e-05
smoothSolver:  Solving for omega, Initial residual = 0.000350655, Final residual = 1.84424e-05, No Iterations 4
smoothSolver:  Solving for k, Initial residual = 0.00481376, Final residual = 0.000342715, No Iterations 4
ExecutionTime = 8.71 s  ClockTime = 9 s

forceCoeffs forceCoeffs1 write:
    Cm    = 0.16536
    Cd    = 0.393462
    Cl    = 0.051884
    Cl(f) = 0.191302
    Cl(r) = -0.139418

Time = 37

smoothSolver:  Solving for Ux, Initial residual = 0.00288372, Final residual = 0.00028054, No Iterations 10
smoothSolver:  Solving for Uy, Initial residual = 0.0649484, Final residual = 0.0061381, No Iterations 10
smoothSolver:  Solving for Uz, Initial residual = 0.0496902, Final residual = 0.00469115, No Iterations 10
GAMG:  Solving for p, Initial residual = 0.0232451, Final residual = 0.000185934, No Iterations 4
time step continuity errors : sum local = 0.000323072, global = -2.52478e-06, cumulative = -2.17195e-05
smoothSolver:  Solving for omega, Initial residual = 0.000340759, Final residual = 1.79579e-05, No Iterations 4
smoothSolver:  Solving for k, Initial residual = 0.00470753, Final residual = 0.000334474, No Iterations 4
ExecutionTime = 8.77 s  ClockTime = 9 s

forceCoeffs forceCoeffs1 write:
    Cm    = 0.16416
    Cd    = 0.391709
    Cl    = 0.0520222
    Cl(f) = 0.190171
    Cl(r) = -0.138148

Time = 38

smoothSolver:  Solving for Ux, Initial residual = 0.00280919, Final residual = 0.00027656, No Iterations 10
smoothSolver:  Solving for Uy, Initial residual = 0.0621437, Final residual = 0.00597237, No Iterations 10
smoothSolver:  Solving for Uz, Initial residual = 0.0478494, Final residual = 0.00457796, No Iterations 10
GAMG:  Solving for p, Initial residual = 0.0225951, Final residual = 0.000179777, No Iterations 4
time step continuity errors : sum local = 0.000308301, global = -2.43667e-06, cumulative = -2.41562e-05
smoothSolver:  Solving for omega, Initial residual = 0.000330636, Final residual = 1.74542e-05, No Iterations 4
smoothSolver:  Solving for k, Initial residual = 0.004613, Final residual = 0.000327878, No Iterations 4
ExecutionTime = 8.83 s  ClockTime = 9 s

forceCoeffs forceCoeffs1 write:
    Cm    = 0.162965
    Cd    = 0.391107
    Cl    = 0.0534959
    Cl(f) = 0.189713
    Cl(r) = -0.136217

Time = 39

smoothSolver:  Solving for Ux, Initial residual = 0.00273758, Final residual = 0.000273745, No Iterations 10
smoothSolver:  Solving for Uy, Initial residual = 0.0589961, Final residual = 0.00574721, No Iterations 10
smoothSolver:  Solving for Uz, Initial residual = 0.0462091, Final residual = 0.00447581, No Iterations 10
GAMG:  Solving for p, Initial residual = 0.0220293, Final residual = 0.000176091, No Iterations 4
time step continuity errors : sum local = 0.000298238, global = -2.37166e-06, cumulative = -2.65278e-05
smoothSolver:  Solving for omega, Initial residual = 0.000321328, Final residual = 1.69521e-05, No Iterations 4
smoothSolver:  Solving for k, Initial residual = 0.00450315, Final residual = 0.000320489, No Iterations 4
ExecutionTime = 8.88 s  ClockTime = 9 s

forceCoeffs forceCoeffs1 write:
    Cm    = 0.161452
    Cd    = 0.39091
    Cl    = 0.055807
    Cl(f) = 0.189355
    Cl(r) = -0.133548

Time = 40

smoothSolver:  Solving for Ux, Initial residual = 0.0026658, Final residual = 0.000218939, No Iterations 11
smoothSolver:  Solving for Uy, Initial residual = 0.0563281, Final residual = 0.00552076, No Iterations 10
smoothSolver:  Solving for Uz, Initial residual = 0.0448597, Final residual = 0.00438173, No Iterations 10
GAMG:  Solving for p, Initial residual = 0.0214829, Final residual = 0.0001719, No Iterations 4
time step continuity errors : sum local = 0.000287511, global = -2.63891e-06, cumulative = -2.91667e-05
smoothSolver:  Solving for omega, Initial residual = 0.000309522, Final residual = 1.64686e-05, No Iterations 4
bounding omega, min: -0.63614 max: 146179 average: 913.266
smoothSolver:  Solving for k, Initial residual = 0.00439548, Final residual = 0.000311971, No Iterations 4
ExecutionTime = 8.95 s  ClockTime = 9 s

forceCoeffs forceCoeffs1 write:
    Cm    = 0.159854
    Cd    = 0.390936
    Cl    = 0.0593635
    Cl(f) = 0.189535
    Cl(r) = -0.130172

Time = 41

smoothSolver:  Solving for Ux, Initial residual = 0.00258769, Final residual = 0.00021416, No Iterations 11
smoothSolver:  Solving for Uy, Initial residual = 0.0542289, Final residual = 0.00532987, No Iterations 10
smoothSolver:  Solving for Uz, Initial residual = 0.0437081, Final residual = 0.00427651, No Iterations 10
GAMG:  Solving for p, Initial residual = 0.021013, Final residual = 0.000167861, No Iterations 4
time step continuity errors : sum local = 0.000277669, global = -2.77808e-06, cumulative = -3.19448e-05
smoothSolver:  Solving for omega, Initial residual = 0.000299516, Final residual = 1.60495e-05, No Iterations 4
smoothSolver:  Solving for k, Initial residual = 0.00428053, Final residual = 0.000303284, No Iterations 4
ExecutionTime = 9.04 s  ClockTime = 10 s

forceCoeffs forceCoeffs1 write:
    Cm    = 0.158307
    Cd    = 0.391076
    Cl    = 0.0631935
    Cl(f) = 0.189904
    Cl(r) = -0.12671

Time = 42

smoothSolver:  Solving for Ux, Initial residual = 0.0025145, Final residual = 0.00020818, No Iterations 11
smoothSolver:  Solving for Uy, Initial residual = 0.0525794, Final residual = 0.00516475, No Iterations 10
smoothSolver:  Solving for Uz, Initial residual = 0.0425935, Final residual = 0.00414583, No Iterations 10
GAMG:  Solving for p, Initial residual = 0.0205883, Final residual = 0.000164735, No Iterations 4
time step continuity errors : sum local = 0.000269832, global = -2.86636e-06, cumulative = -3.48112e-05
smoothSolver:  Solving for omega, Initial residual = 0.000289483, Final residual = 1.55753e-05, No Iterations 4
smoothSolver:  Solving for k, Initial residual = 0.00415524, Final residual = 0.000293924, No Iterations 4
ExecutionTime = 9.09 s  ClockTime = 10 s

forceCoeffs forceCoeffs1 write:
    Cm    = 0.156745
    Cd    = 0.390883
    Cl    = 0.0668362
    Cl(f) = 0.190164
    Cl(r) = -0.123327

Time = 43

smoothSolver:  Solving for Ux, Initial residual = 0.00244924, Final residual = 0.000202093, No Iterations 11
smoothSolver:  Solving for Uy, Initial residual = 0.0516592, Final residual = 0.00506241, No Iterations 10
smoothSolver:  Solving for Uz, Initial residual = 0.0415153, Final residual = 0.00400707, No Iterations 10
GAMG:  Solving for p, Initial residual = 0.0201735, Final residual = 0.000161451, No Iterations 4
time step continuity errors : sum local = 0.000262342, global = -2.78116e-06, cumulative = -3.75923e-05
smoothSolver:  Solving for omega, Initial residual = 0.000282633, Final residual = 1.51502e-05, No Iterations 4
smoothSolver:  Solving for k, Initial residual = 0.00403336, Final residual = 0.000284496, No Iterations 4
ExecutionTime = 9.15 s  ClockTime = 10 s

forceCoeffs forceCoeffs1 write:
    Cm    = 0.155201
    Cd    = 0.390343
    Cl    = 0.0692391
    Cl(f) = 0.189821
    Cl(r) = -0.120582

Time = 44

smoothSolver:  Solving for Ux, Initial residual = 0.00239384, Final residual = 0.000197089, No Iterations 11
smoothSolver:  Solving for Uy, Initial residual = 0.0513034, Final residual = 0.00500451, No Iterations 10
smoothSolver:  Solving for Uz, Initial residual = 0.0406092, Final residual = 0.00388798, No Iterations 10
GAMG:  Solving for p, Initial residual = 0.019867, Final residual = 0.000156105, No Iterations 4
time step continuity errors : sum local = 0.000251896, global = -2.62966e-06, cumulative = -4.0222e-05
smoothSolver:  Solving for omega, Initial residual = 0.000275755, Final residual = 1.47062e-05, No Iterations 4
smoothSolver:  Solving for k, Initial residual = 0.0039205, Final residual = 0.000275502, No Iterations 4
ExecutionTime = 9.2 s  ClockTime = 10 s

forceCoeffs forceCoeffs1 write:
    Cm    = 0.154111
    Cd    = 0.390129
    Cl    = 0.0708686
    Cl(f) = 0.189545
    Cl(r) = -0.118677

Time = 45

smoothSolver:  Solving for Ux, Initial residual = 0.00234195, Final residual = 0.000192906, No Iterations 11
smoothSolver:  Solving for Uy, Initial residual = 0.0511339, Final residual = 0.00497174, No Iterations 10
smoothSolver:  Solving for Uz, Initial residual = 0.0396752, Final residual = 0.00377985, No Iterations 10
GAMG:  Solving for p, Initial residual = 0.0196359, Final residual = 0.000150161, No Iterations 4
time step continuity errors : sum local = 0.000241041, global = -2.37534e-06, cumulative = -4.25973e-05
smoothSolver:  Solving for omega, Initial residual = 0.000267091, Final residual = 1.4285e-05, No Iterations 4
smoothSolver:  Solving for k, Initial residual = 0.00380616, Final residual = 0.000267742, No Iterations 4
ExecutionTime = 9.26 s  ClockTime = 10 s

forceCoeffs forceCoeffs1 write:
    Cm    = 0.153373
    Cd    = 0.389753
    Cl    = 0.0710906
    Cl(f) = 0.188918
    Cl(r) = -0.117828

Time = 46

[...]
smoothSolver:  Solving for k, Initial residual = 0.00206804, Final residual = 0.000140001, No Iterations 4
ExecutionTime = 11 s  ClockTime = 12 s

forceCoeffs forceCoeffs1 write:
    Cm    = 0.154476
    Cd    = 0.404004
    Cl    = 0.0777826
    Cl(f) = 0.193367
    Cl(r) = -0.115585

Time = 80

smoothSolver:  Solving for Ux, Initial residual = 0.00102375, Final residual = 9.78322e-05, No Iterations 10
smoothSolver:  Solving for Uy, Initial residual = 0.0248411, Final residual = 0.00205563, No Iterations 10
smoothSolver:  Solving for Uz, Initial residual = 0.0213746, Final residual = 0.00185332, No Iterations 10
GAMG:  Solving for p, Initial residual = 0.0107541, Final residual = 7.73799e-05, No Iterations 4
time step continuity errors : sum local = 0.00011716, global = 8.81001e-08, cumulative = -3.84773e-05
smoothSolver:  Solving for omega, Initial residual = 0.000154386, Final residual = 1.52737e-05, No Iterations 3
smoothSolver:  Solving for k, Initial residual = 0.00205446, Final residual = 0.000138589, No Iterations 4
ExecutionTime = 11.08 s  ClockTime = 12 s

forceCoeffs forceCoeffs1 write:
    Cm    = 0.154322
    Cd    = 0.404282
    Cl    = 0.0782919
    Cl(f) = 0.193468
    Cl(r) = -0.115176

Time = 81

smoothSolver:  Solving for Ux, Initial residual = 0.0010011, Final residual = 9.57832e-05, No Iterations 10
smoothSolver:  Solving for Uy, Initial residual = 0.0243263, Final residual = 0.00202645, No Iterations 10
smoothSolver:  Solving for Uz, Initial residual = 0.0208386, Final residual = 0.00180434, No Iterations 10
GAMG:  Solving for p, Initial residual = 0.0106489, Final residual = 7.60868e-05, No Iterations 4
time step continuity errors : sum local = 0.000115225, global = -4.26242e-07, cumulative = -3.89035e-05
smoothSolver:  Solving for omega, Initial residual = 0.000153328, Final residual = 1.51666e-05, No Iterations 3
smoothSolver:  Solving for k, Initial residual = 0.0020378, Final residual = 0.00013699, No Iterations 4
ExecutionTime = 11.13 s  ClockTime = 12 s

forceCoeffs forceCoeffs1 write:
    Cm    = 0.154183
    Cd    = 0.404658
    Cl    = 0.0785756
    Cl(f) = 0.19347
    Cl(r) = -0.114895

Time = 82

smoothSolver:  Solving for Ux, Initial residual = 0.000981462, Final residual = 9.44282e-05, No Iterations 10
smoothSolver:  Solving for Uy, Initial residual = 0.0239508, Final residual = 0.00200626, No Iterations 10
smoothSolver:  Solving for Uz, Initial residual = 0.0203689, Final residual = 0.00177187, No Iterations 10
GAMG:  Solving for p, Initial residual = 0.0105349, Final residual = 7.70291e-05, No Iterations 4
time step continuity errors : sum local = 0.000116621, global = -8.56071e-07, cumulative = -3.97596e-05
smoothSolver:  Solving for omega, Initial residual = 0.000151987, Final residual = 1.5054e-05, No Iterations 3
smoothSolver:  Solving for k, Initial residual = 0.00202447, Final residual = 0.000135629, No Iterations 4
ExecutionTime = 11.17 s  ClockTime = 12 s

forceCoeffs forceCoeffs1 write:
    Cm    = 0.154153
    Cd    = 0.405049
    Cl    = 0.0786284
    Cl(f) = 0.193467
    Cl(r) = -0.114839

Time = 83

smoothSolver:  Solving for Ux, Initial residual = 0.000969204, Final residual = 9.37856e-05, No Iterations 10
smoothSolver:  Solving for Uy, Initial residual = 0.0237203, Final residual = 0.00199192, No Iterations 10
smoothSolver:  Solving for Uz, Initial residual = 0.0201186, Final residual = 0.00175482, No Iterations 10
GAMG:  Solving for p, Initial residual = 0.0104251, Final residual = 7.7673e-05, No Iterations 4
time step continuity errors : sum local = 0.000117529, global = -8.74994e-07, cumulative = -4.06346e-05
smoothSolver:  Solving for omega, Initial residual = 0.00015041, Final residual = 1.49191e-05, No Iterations 3
smoothSolver:  Solving for k, Initial residual = 0.00201016, Final residual = 0.000134514, No Iterations 4
ExecutionTime = 11.22 s  ClockTime = 12 s

forceCoeffs forceCoeffs1 write:
    Cm    = 0.154203
    Cd    = 0.405381
    Cl    = 0.07833
    Cl(f) = 0.193368
    Cl(r) = -0.115038

Time = 84

smoothSolver:  Solving for Ux, Initial residual = 0.000964751, Final residual = 9.34808e-05, No Iterations 10
smoothSolver:  Solving for Uy, Initial residual = 0.0236614, Final residual = 0.00198558, No Iterations 10
smoothSolver:  Solving for Uz, Initial residual = 0.0200918, Final residual = 0.00175348, No Iterations 10
GAMG:  Solving for p, Initial residual = 0.0103543, Final residual = 7.83184e-05, No Iterations 4
time step continuity errors : sum local = 0.000118389, global = -7.51568e-07, cumulative = -4.13862e-05
smoothSolver:  Solving for omega, Initial residual = 0.000149351, Final residual = 1.48098e-05, No Iterations 3
smoothSolver:  Solving for k, Initial residual = 0.00200094, Final residual = 0.000133445, No Iterations 4
ExecutionTime = 11.27 s  ClockTime = 12 s

forceCoeffs forceCoeffs1 write:
    Cm    = 0.154387
    Cd    = 0.405645
    Cl    = 0.0780382
    Cl(f) = 0.193406
    Cl(r) = -0.115368

Time = 85

smoothSolver:  Solving for Ux, Initial residual = 0.00096477, Final residual = 9.35424e-05, No Iterations 10
smoothSolver:  Solving for Uy, Initial residual = 0.023701, Final residual = 0.00198292, No Iterations 10
smoothSolver:  Solving for Uz, Initial residual = 0.0201785, Final residual = 0.00176344, No Iterations 10
GAMG:  Solving for p, Initial residual = 0.0103106, Final residual = 7.90751e-05, No Iterations 4
time step continuity errors : sum local = 0.000119407, global = -4.67326e-07, cumulative = -4.18535e-05
smoothSolver:  Solving for omega, Initial residual = 0.000148363, Final residual = 1.46786e-05, No Iterations 3
smoothSolver:  Solving for k, Initial residual = 0.00199289, Final residual = 0.000132477, No Iterations 4
ExecutionTime = 11.31 s  ClockTime = 12 s

forceCoeffs forceCoeffs1 write:
    Cm    = 0.154613
    Cd    = 0.405875
    Cl    = 0.0777926
    Cl(f) = 0.193509
    Cl(r) = -0.115717

Time = 86

smoothSolver:  Solving for Ux, Initial residual = 0.000967748, Final residual = 9.37606e-05, No Iterations 10
smoothSolver:  Solving for Uy, Initial residual = 0.0236796, Final residual = 0.00197889, No Iterations 10
smoothSolver:  Solving for Uz, Initial residual = 0.0202753, Final residual = 0.0017757, No Iterations 10
GAMG:  Solving for p, Initial residual = 0.0102985, Final residual = 7.99915e-05, No Iterations 4
time step continuity errors : sum local = 0.000120686, global = -2.14491e-07, cumulative = -4.2068e-05
smoothSolver:  Solving for omega, Initial residual = 0.000147926, Final residual = 1.45879e-05, No Iterations 3
smoothSolver:  Solving for k, Initial residual = 0.00198431, Final residual = 0.00013158, No Iterations 4
ExecutionTime = 11.36 s  ClockTime = 12 s

forceCoeffs forceCoeffs1 write:
    Cm    = 0.154864
    Cd    = 0.406053
    Cl    = 0.077733
    Cl(f) = 0.193731
    Cl(r) = -0.115998

Time = 87

smoothSolver:  Solving for Ux, Initial residual = 0.000968776, Final residual = 9.39628e-05, No Iterations 10
smoothSolver:  Solving for Uy, Initial residual = 0.0235534, Final residual = 0.00197058, No Iterations 10
smoothSolver:  Solving for Uz, Initial residual = 0.0203057, Final residual = 0.00178658, No Iterations 10
GAMG:  Solving for p, Initial residual = 0.0102828, Final residual = 7.9843e-05, No Iterations 4
time step continuity errors : sum local = 0.000120394, global = -1.45771e-08, cumulative = -4.20825e-05
smoothSolver:  Solving for omega, Initial residual = 0.000147737, Final residual = 1.45094e-05, No Iterations 3
smoothSolver:  Solving for k, Initial residual = 0.00197675, Final residual = 0.000130869, No Iterations 4
ExecutionTime = 11.41 s  ClockTime = 12 s

forceCoeffs forceCoeffs1 write:
    Cm    = 0.155118
    Cd    = 0.406276
    Cl    = 0.0776889
    Cl(f) = 0.193962
    Cl(r) = -0.116273

Time = 88

smoothSolver:  Solving for Ux, Initial residual = 0.000966625, Final residual = 9.42819e-05, No Iterations 10
smoothSolver:  Solving for Uy, Initial residual = 0.0233193, Final residual = 0.00195442, No Iterations 10
smoothSolver:  Solving for Uz, Initial residual = 0.0202707, Final residual = 0.00179913, No Iterations 10
GAMG:  Solving for p, Initial residual = 0.0102338, Final residual = 7.83049e-05, No Iterations 4
time step continuity errors : sum local = 0.000118035, global = 2.63925e-07, cumulative = -4.18186e-05
smoothSolver:  Solving for omega, Initial residual = 0.000147557, Final residual = 1.45263e-05, No Iterations 3
smoothSolver:  Solving for k, Initial residual = 0.00197211, Final residual = 0.000130517, No Iterations 4
ExecutionTime = 11.46 s  ClockTime = 12 s

forceCoeffs forceCoeffs1 write:
    Cm    = 0.155435
    Cd    = 0.406531
    Cl    = 0.0777317
    Cl(f) = 0.194301
    Cl(r) = -0.11657

Time = 89

smoothSolver:  Solving for Ux, Initial residual = 0.000963217, Final residual = 9.46053e-05, No Iterations 10
smoothSolver:  Solving for Uy, Initial residual = 0.0230739, Final residual = 0.00193899, No Iterations 10
smoothSolver:  Solving for Uz, Initial residual = 0.0201853, Final residual = 0.00181133, No Iterations 10
GAMG:  Solving for p, Initial residual = 0.0101619, Final residual = 7.66263e-05, No Iterations 4
time step continuity errors : sum local = 0.000115499, global = 7.12328e-07, cumulative = -4.11063e-05
smoothSolver:  Solving for omega, Initial residual = 0.00014774, Final residual = 1.45826e-05, No Iterations 3
smoothSolver:  Solving for k, Initial residual = 0.00196723, Final residual = 0.00013052, No Iterations 4
ExecutionTime = 11.5 s  ClockTime = 12 s

forceCoeffs forceCoeffs1 write:
    Cm    = 0.155864
    Cd    = 0.40689
    Cl    = 0.0776723
    Cl(f) = 0.1947
    Cl(r) = -0.117028

Time = 90

smoothSolver:  Solving for Ux, Initial residual = 0.000958767, Final residual = 9.47059e-05, No Iterations 10
smoothSolver:  Solving for Uy, Initial residual = 0.0228627, Final residual = 0.00193301, No Iterations 10
smoothSolver:  Solving for Uz, Initial residual = 0.0200555, Final residual = 0.00181062, No Iterations 10
GAMG:  Solving for p, Initial residual = 0.0100696, Final residual = 7.56962e-05, No Iterations 4
time step continuity errors : sum local = 0.00011416, global = 7.37354e-07, cumulative = -4.03689e-05
smoothSolver:  Solving for omega, Initial residual = 0.000147499, Final residual = 1.46178e-05, No Iterations 3
smoothSolver:  Solving for k, Initial residual = 0.00195815, Final residual = 0.000130401, No Iterations 4
ExecutionTime = 11.55 s  ClockTime = 12 s

forceCoeffs forceCoeffs1 write:
    Cm    = 0.156464
    Cd    = 0.407298
    Cl    = 0.0775397
    Cl(f) = 0.195234
    Cl(r) = -0.117694

Time = 91

smoothSolver:  Solving for Ux, Initial residual = 0.00095185, Final residual = 9.44125e-05, No Iterations 10
smoothSolver:  Solving for Uy, Initial residual = 0.022689, Final residual = 0.0019319, No Iterations 10
smoothSolver:  Solving for Uz, Initial residual = 0.0198906, Final residual = 0.00179325, No Iterations 10
GAMG:  Solving for p, Initial residual = 0.00999139, Final residual = 7.55993e-05, No Iterations 4
time step continuity errors : sum local = 0.000114184, global = 8.95903e-07, cumulative = -3.9473e-05
smoothSolver:  Solving for omega, Initial residual = 0.000146879, Final residual = 1.45919e-05, No Iterations 3
smoothSolver:  Solving for k, Initial residual = 0.00194309, Final residual = 0.000130009, No Iterations 4
ExecutionTime = 11.6 s  ClockTime = 12 s

forceCoeffs forceCoeffs1 write:
    Cm    = 0.157197
    Cd    = 0.407799
    Cl    = 0.0771604
    Cl(f) = 0.195777
    Cl(r) = -0.118616

Time = 92

smoothSolver:  Solving for Ux, Initial residual = 0.000942527, Final residual = 9.37049e-05, No Iterations 10
smoothSolver:  Solving for Uy, Initial residual = 0.0225779, Final residual = 0.00192622, No Iterations 10
smoothSolver:  Solving for Uz, Initial residual = 0.0197543, Final residual = 0.00176691, No Iterations 10
GAMG:  Solving for p, Initial residual = 0.00992834, Final residual = 7.62697e-05, No Iterations 4
time step continuity errors : sum local = 0.000115442, global = 8.91294e-07, cumulative = -3.85817e-05
smoothSolver:  Solving for omega, Initial residual = 0.000146398, Final residual = 1.45437e-05, No Iterations 3
smoothSolver:  Solving for k, Initial residual = 0.0019238, Final residual = 0.000129241, No Iterations 4
ExecutionTime = 11.65 s  ClockTime = 12 s

forceCoeffs forceCoeffs1 write:
    Cm    = 0.157984
    Cd    = 0.408273
    Cl    = 0.0766214
    Cl(f) = 0.196295
    Cl(r) = -0.119673

Time = 93

smoothSolver:  Solving for Ux, Initial residual = 0.000935344, Final residual = 9.32277e-05, No Iterations 10
smoothSolver:  Solving for Uy, Initial residual = 0.022581, Final residual = 0.00191739, No Iterations 10
smoothSolver:  Solving for Uz, Initial residual = 0.0196583, Final residual = 0.00173551, No Iterations 10
GAMG:  Solving for p, Initial residual = 0.00989506, Final residual = 7.74323e-05, No Iterations 4
time step continuity errors : sum local = 0.000117485, global = 9.16435e-07, cumulative = -3.76653e-05
smoothSolver:  Solving for omega, Initial residual = 0.000145541, Final residual = 1.43992e-05, No Iterations 3
smoothSolver:  Solving for k, Initial residual = 0.00190776, Final residual = 0.000128189, No Iterations 4
ExecutionTime = 11.7 s  ClockTime = 12 s

forceCoeffs forceCoeffs1 write:
    Cm    = 0.158681
    Cd    = 0.408679
    Cl    = 0.0757911
    Cl(f) = 0.196577
    Cl(r) = -0.120786

Time = 94

smoothSolver:  Solving for Ux, Initial residual = 0.00093287, Final residual = 9.30235e-05, No Iterations 10
smoothSolver:  Solving for Uy, Initial residual = 0.0226447, Final residual = 0.00190045, No Iterations 10
smoothSolver:  Solving for Uz, Initial residual = 0.0195568, Final residual = 0.00170369, No Iterations 10
GAMG:  Solving for p, Initial residual = 0.0098621, Final residual = 7.78053e-05, No Iterations 4
time step continuity errors : sum local = 0.000118321, global = 9.02392e-07, cumulative = -3.67629e-05
smoothSolver:  Solving for omega, Initial residual = 0.000145014, Final residual = 1.42711e-05, No Iterations 3
smoothSolver:  Solving for k, Initial residual = 0.00189263, Final residual = 0.000127021, No Iterations 4
ExecutionTime = 11.79 s  ClockTime = 12 s

forceCoeffs forceCoeffs1 write:
    Cm    = 0.15919
    Cd    = 0.40892
    Cl    = 0.0749685
    Cl(f) = 0.196675
    Cl(r) = -0.121706

Time = 95

smoothSolver:  Solving for Ux, Initial residual = 0.00093148, Final residual = 9.22642e-05, No Iterations 10
smoothSolver:  Solving for Uy, Initial residual = 0.0226978, Final residual = 0.0018746, No Iterations 10
smoothSolver:  Solving for Uz, Initial residual = 0.0194335, Final residual = 0.00167139, No Iterations 10
GAMG:  Solving for p, Initial residual = 0.00984093, Final residual = 7.72389e-05, No Iterations 4
time step continuity errors : sum local = 0.000117698, global = 9.23735e-07, cumulative = -3.58392e-05
smoothSolver:  Solving for omega, Initial residual = 0.000143539, Final residual = 1.41019e-05, No Iterations 3
smoothSolver:  Solving for k, Initial residual = 0.00187262, Final residual = 0.000126179, No Iterations 4
ExecutionTime = 11.84 s  ClockTime = 12 s

forceCoeffs forceCoeffs1 write:
    Cm    = 0.159438
    Cd    = 0.409049
    Cl    = 0.0742173
    Cl(f) = 0.196547
    Cl(r) = -0.12233

Time = 96

smoothSolver:  Solving for Ux, Initial residual = 0.000929625, Final residual = 9.11008e-05, No Iterations 10
smoothSolver:  Solving for Uy, Initial residual = 0.0226473, Final residual = 0.00184684, No Iterations 10
smoothSolver:  Solving for Uz, Initial residual = 0.0192604, Final residual = 0.00163409, No Iterations 10
GAMG:  Solving for p, Initial residual = 0.0098058, Final residual = 7.51259e-05, No Iterations 4
time step continuity errors : sum local = 0.000114637, global = 8.57378e-07, cumulative = -3.49818e-05
smoothSolver:  Solving for omega, Initial residual = 0.000142151, Final residual = 1.396e-05, No Iterations 3
smoothSolver:  Solving for k, Initial residual = 0.0018533, Final residual = 0.0001254, No Iterations 4
ExecutionTime = 11.88 s  ClockTime = 13 s

forceCoeffs forceCoeffs1 write:
    Cm    = 0.159472
    Cd    = 0.409102
    Cl    = 0.0736226
    Cl(f) = 0.196283
    Cl(r) = -0.12266

Time = 97

smoothSolver:  Solving for Ux, Initial residual = 0.000924982, Final residual = 8.95501e-05, No Iterations 10
smoothSolver:  Solving for Uy, Initial residual = 0.0224006, Final residual = 0.00182269, No Iterations 10
smoothSolver:  Solving for Uz, Initial residual = 0.0189883, Final residual = 0.00159697, No Iterations 10
GAMG:  Solving for p, Initial residual = 0.00974861, Final residual = 7.21365e-05, No Iterations 4
time step continuity errors : sum local = 0.000110164, global = 3.78526e-07, cumulative = -3.46033e-05
smoothSolver:  Solving for omega, Initial residual = 0.000140413, Final residual = 1.37934e-05, No Iterations 3
smoothSolver:  Solving for k, Initial residual = 0.00182871, Final residual = 0.00012455, No Iterations 4
ExecutionTime = 11.93 s  ClockTime = 13 s

forceCoeffs forceCoeffs1 write:
    Cm    = 0.159334
    Cd    = 0.409158
    Cl    = 0.0731563
    Cl(f) = 0.195912
    Cl(r) = -0.122756

Time = 98

smoothSolver:  Solving for Ux, Initial residual = 0.000916611, Final residual = 8.79071e-05, No Iterations 10
smoothSolver:  Solving for Uy, Initial residual = 0.0219663, Final residual = 0.00180089, No Iterations 10
smoothSolver:  Solving for Uz, Initial residual = 0.0186016, Final residual = 0.00155801, No Iterations 10
GAMG:  Solving for p, Initial residual = 0.00966705, Final residual = 7.0004e-05, No Iterations 4
time step continuity errors : sum local = 0.000106927, global = -4.12973e-07, cumulative = -3.50163e-05
smoothSolver:  Solving for omega, Initial residual = 0.00013957, Final residual = 1.36891e-05, No Iterations 3
smoothSolver:  Solving for k, Initial residual = 0.00181142, Final residual = 0.0001235, No Iterations 4
ExecutionTime = 11.98 s  ClockTime = 13 s

forceCoeffs forceCoeffs1 write:
    Cm    = 0.159161
    Cd    = 0.409285
    Cl    = 0.0728461
    Cl(f) = 0.195584
    Cl(r) = -0.122738

Time = 99

smoothSolver:  Solving for Ux, Initial residual = 0.000904861, Final residual = 8.62795e-05, No Iterations 10
smoothSolver:  Solving for Uy, Initial residual = 0.0214119, Final residual = 0.00177223, No Iterations 10
smoothSolver:  Solving for Uz, Initial residual = 0.0181812, Final residual = 0.00152195, No Iterations 10
GAMG:  Solving for p, Initial residual = 0.00958037, Final residual = 7.00772e-05, No Iterations 4
time step continuity errors : sum local = 0.000106977, global = -7.36976e-07, cumulative = -3.57532e-05
smoothSolver:  Solving for omega, Initial residual = 0.000139024, Final residual = 1.35974e-05, No Iterations 3
smoothSolver:  Solving for k, Initial residual = 0.00179411, Final residual = 0.000122395, No Iterations 4
ExecutionTime = 12.02 s  ClockTime = 13 s

forceCoeffs forceCoeffs1 write:
    Cm    = 0.158998
    Cd    = 0.40953
    Cl    = 0.0725556
    Cl(f) = 0.195276
    Cl(r) = -0.12272

Time = 100

smoothSolver:  Solving for Ux, Initial residual = 0.00089042, Final residual = 8.48126e-05, No Iterations 10
smoothSolver:  Solving for Uy, Initial residual = 0.0209307, Final residual = 0.00173552, No Iterations 10
smoothSolver:  Solving for Uz, Initial residual = 0.0178471, Final residual = 0.00149521, No Iterations 10
GAMG:  Solving for p, Initial residual = 0.00950159, Final residual = 7.19641e-05, No Iterations 4
time step continuity errors : sum local = 0.000109733, global = -6.82671e-07, cumulative = -3.64359e-05
smoothSolver:  Solving for omega, Initial residual = 0.000138428, Final residual = 1.35079e-05, No Iterations 3
smoothSolver:  Solving for k, Initial residual = 0.00177818, Final residual = 0.000121486, No Iterations 4
ExecutionTime = 12.08 s  ClockTime = 13 s

forceCoeffs forceCoeffs1 write:
    Cm    = 0.158932
    Cd    = 0.409844
    Cl    = 0.0723273
    Cl(f) = 0.195096
    Cl(r) = -0.122768

End

Finalising parallel run
